<?xml version="1.0" encoding="UTF-8"?>

<!-- generated on 2023-09-05 17:46:23 by Eclipse SUMO netedit Version 1.16.0
<configuration xmlns:xsi="http://www.w3.org/2001/XMLSchema-instance" xsi:noNamespaceSchemaLocation="http://sumo.dlr.de/xsd/netconvertConfiguration.xsd">

    <input>
        <sumo-net-file value="F:\研究生\双智\SimPlatform\data\network\changjidong_yutangnan_only.net.xml"/>
    </input>

    <output>
        <output-file value="F:\研究生\双智\SimPlatform\data\network\changjidong_yutangnan_only.net.xml"/>
    </output>

    <processing>
        <geometry.min-radius.fix.railways value="false"/>
        <geometry.max-grade.fix value="false"/>
        <offset.disable-normalization value="true"/>
        <lefthand value="0"/>
    </processing>

    <junctions>
        <no-turnarounds value="true"/>
        <junctions.corner-detail value="5"/>
        <junctions.limit-turn-speed value="5.50"/>
        <rectangular-lane-cut value="0"/>
    </junctions>

    <pedestrian>
        <walkingareas value="0"/>
    </pedestrian>

</configuration>
-->

<net version="1.16" junctionCornerDetail="5" limitTurnSpeed="5.50" xmlns:xsi="http://www.w3.org/2001/XMLSchema-instance" xsi:noNamespaceSchemaLocation="http://sumo.dlr.de/xsd/net_file.xsd">

    <location netOffset="-322387.21,-3458515.83" convBoundary="4606.42,5198.93,5391.40,5998.00" origBoundary="121.133746,31.248809,121.258992,31.354183" projParameter="+proj=utm +zone=51 +ellps=WGS84 +datum=WGS84 +units=m +no_defs"/>

    <type id="highway.bridleway" priority="1" numLanes="1" speed="2.78" allow="pedestrian" oneway="1" width="2.00"/>
    <type id="highway.bus_guideway" priority="1" numLanes="1" speed="27.78" allow="bus" oneway="1"/>
    <type id="highway.cycleway" priority="1" numLanes="1" speed="8.33" allow="bicycle" oneway="1" width="1.00"/>
    <type id="highway.footway" priority="1" numLanes="1" speed="2.78" allow="pedestrian" oneway="1" width="2.00"/>
    <type id="highway.ford" priority="1" numLanes="1" speed="2.78" allow="army" oneway="1"/>
    <type id="highway.living_street" priority="2" numLanes="1" speed="2.78" disallow="tram rail_urban rail rail_electric rail_fast ship" oneway="1"/>
    <type id="highway.motorway" priority="14" numLanes="2" speed="39.44" allow="private emergency authority army vip passenger hov taxi bus coach delivery truck trailer motorcycle evehicle custom1 custom2" oneway="1"/>
    <type id="highway.motorway_link" priority="9" numLanes="1" speed="22.22" allow="private emergency authority army vip passenger hov taxi bus coach delivery truck trailer motorcycle evehicle custom1 custom2" oneway="1"/>
    <type id="highway.path" priority="1" numLanes="1" speed="2.78" allow="pedestrian bicycle" oneway="1" width="2.00"/>
    <type id="highway.pedestrian" priority="1" numLanes="1" speed="2.78" allow="pedestrian" oneway="1" width="2.00"/>
    <type id="highway.primary" priority="12" numLanes="2" speed="27.78" disallow="tram rail_urban rail rail_electric rail_fast ship" oneway="1"/>
    <type id="highway.primary_link" priority="7" numLanes="1" speed="22.22" disallow="tram rail_urban rail rail_electric rail_fast ship" oneway="1"/>
    <type id="highway.raceway" priority="15" numLanes="2" speed="83.33" allow="vip" oneway="1"/>
    <type id="highway.residential" priority="3" numLanes="1" speed="13.89" disallow="tram rail_urban rail rail_electric rail_fast ship" oneway="1"/>
    <type id="highway.secondary" priority="11" numLanes="1" speed="27.78" disallow="tram rail_urban rail rail_electric rail_fast ship" oneway="1"/>
    <type id="highway.secondary_link" priority="6" numLanes="1" speed="22.22" disallow="tram rail_urban rail rail_electric rail_fast ship" oneway="1"/>
    <type id="highway.service" priority="1" numLanes="1" speed="5.56" allow="pedestrian delivery bicycle" oneway="1"/>
    <type id="highway.stairs" priority="1" numLanes="1" speed="1.39" allow="pedestrian" oneway="1" width="2.00"/>
    <type id="highway.step" priority="1" numLanes="1" speed="1.39" allow="pedestrian" oneway="1" width="2.00"/>
    <type id="highway.steps" priority="1" numLanes="1" speed="1.39" allow="pedestrian" oneway="1" width="2.00"/>
    <type id="highway.tertiary" priority="10" numLanes="1" speed="22.22" disallow="tram rail_urban rail rail_electric rail_fast ship" oneway="1"/>
    <type id="highway.tertiary_link" priority="5" numLanes="1" speed="22.22" disallow="tram rail_urban rail rail_electric rail_fast ship" oneway="1"/>
    <type id="highway.track" priority="1" numLanes="1" speed="5.56" allow="pedestrian motorcycle moped bicycle" oneway="1"/>
    <type id="highway.trunk" priority="13" numLanes="2" speed="27.78" disallow="pedestrian bicycle tram rail_urban rail rail_electric rail_fast ship" oneway="1"/>
    <type id="highway.trunk_link" priority="8" numLanes="1" speed="22.22" disallow="pedestrian bicycle tram rail_urban rail rail_electric rail_fast ship" oneway="1"/>
    <type id="highway.unclassified" priority="4" numLanes="1" speed="13.89" disallow="tram rail_urban rail rail_electric rail_fast ship" oneway="1"/>
    <type id="highway.unsurfaced" priority="1" numLanes="1" speed="8.33" disallow="tram rail_urban rail rail_electric rail_fast ship" oneway="1"/>
    <type id="railway.highspeed" priority="21" numLanes="1" speed="69.44" allow="rail_fast" oneway="1"/>
    <type id="railway.light_rail" priority="19" numLanes="1" speed="27.78" allow="rail_urban" oneway="1"/>
    <type id="railway.preserved" priority="16" numLanes="1" speed="27.78" allow="rail" oneway="1"/>
    <type id="railway.rail" priority="20" numLanes="1" speed="44.44" allow="rail" oneway="1"/>
    <type id="railway.subway" priority="18" numLanes="1" speed="27.78" allow="rail_urban" oneway="1"/>
    <type id="railway.tram" priority="17" numLanes="1" speed="13.89" allow="tram" oneway="1"/>

    <edge id=":-111337_0" function="internal">
        <lane id=":-111337_0_0" index="0" disallow="tram rail_urban rail rail_electric rail_fast ship" speed="22.22" length="8.21" shape="4931.61,5442.99 4934.00,5442.71 4935.60,5442.15 4937.19,5441.58 4939.59,5441.31"/>
        <lane id=":-111337_0_1" index="1" disallow="tram rail_urban rail rail_electric rail_fast ship" speed="22.22" length="8.21" shape="4931.63,5446.19 4934.03,5445.91 4935.63,5445.35 4937.22,5444.78 4939.62,5444.51"/>
        <lane id=":-111337_0_2" index="2" disallow="tram rail_urban rail rail_electric rail_fast ship" speed="22.22" length="8.21" shape="4931.63,5446.19 4934.04,5446.41 4935.64,5446.95 4937.25,5447.48 4939.65,5447.71"/>
    </edge>
    <edge id=":-112684_0" function="internal">
        <lane id=":-112684_0_0" index="0" disallow="tram rail_urban rail rail_electric rail_fast ship" speed="3.65" length="4.67" shape="5054.35,5997.97 5053.57,5999.18 5052.78,5999.60 5051.97,5999.22 5051.15,5998.03"/>
    </edge>
    <edge id=":-116361_0" function="internal">
        <lane id=":-116361_0_0" index="0" disallow="tram rail_urban rail rail_electric rail_fast ship" speed="13.89" length="8.07" shape="5035.84,5395.86 5035.43,5387.71"/>
        <lane id=":-116361_0_1" index="1" disallow="tram rail_urban rail rail_electric rail_fast ship" speed="13.89" length="8.07" shape="5039.03,5395.61 5038.63,5387.64"/>
    </edge>
    <edge id=":-116361_2" function="internal">
        <lane id=":-116361_2_0" index="0" disallow="tram rail_urban rail rail_electric rail_fast ship" speed="13.89" length="8.27" shape="5045.03,5387.48 5045.59,5389.79 5046.74,5391.19 5047.93,5392.58 5048.61,5394.89"/>
        <lane id=":-116361_2_1" index="1" disallow="tram rail_urban rail rail_electric rail_fast ship" speed="13.89" length="8.27" shape="5041.83,5387.56 5042.39,5389.92 5043.54,5391.35 5044.74,5392.77 5045.41,5395.13"/>
        <lane id=":-116361_2_2" index="2" disallow="tram rail_urban rail rail_electric rail_fast ship" speed="13.89" length="8.27" shape="5041.83,5387.56 5042.22,5395.37"/>
    </edge>
    <edge id=":J92_0" function="internal">
        <lane id=":J92_0_0" index="0" disallow="tram rail_urban rail rail_electric rail_fast ship" speed="13.89" length="8.54" shape="5038.29,5525.58 5037.74,5523.12 5036.61,5521.60 5035.49,5520.08 5034.95,5517.63"/>
        <lane id=":J92_0_1" index="1" disallow="tram rail_urban rail rail_electric rail_fast ship" speed="13.89" length="8.54" shape="5041.49,5525.51 5040.94,5523.06 5039.81,5521.54 5038.69,5520.03 5038.15,5517.58"/>
        <lane id=":J92_0_2" index="2" disallow="tram rail_urban rail rail_electric rail_fast ship" speed="13.89" length="8.54" shape="5041.49,5525.51 5041.35,5517.52"/>
    </edge>
    <edge id=":J93_0" function="internal">
        <lane id=":J93_0_0" index="0" disallow="tram rail_urban rail rail_electric rail_fast ship" speed="22.22" length="8.20" shape="5132.93,5451.41 5130.56,5451.70 5128.98,5452.29 5127.41,5452.89 5125.04,5453.22"/>
        <lane id=":J93_0_1" index="1" disallow="tram rail_urban rail rail_electric rail_fast ship" speed="22.22" length="8.20" shape="5132.87,5448.21 5130.48,5448.50 5128.90,5449.09 5127.31,5449.69 5124.92,5450.02"/>
        <lane id=":J93_0_2" index="2" disallow="tram rail_urban rail rail_electric rail_fast ship" speed="22.22" length="8.20" shape="5132.87,5448.21 5130.46,5448.00 5128.84,5447.49 5127.22,5446.99 5124.81,5446.83"/>
    </edge>
    <edge id=":J98_0" function="internal">
        <lane id=":J98_0_0" index="0" disallow="tram rail_urban rail rail_electric rail_fast ship" speed="22.22" length="8.21" shape="4736.40,5456.04 4734.00,5456.31 4732.41,5456.88 4730.81,5457.45 4728.42,5457.73"/>
        <lane id=":J98_0_1" index="1" disallow="tram rail_urban rail rail_electric rail_fast ship" speed="22.22" length="8.21" shape="4736.36,5452.84 4733.97,5453.11 4732.37,5453.68 4730.78,5454.25 4728.38,5454.53"/>
        <lane id=":J98_0_2" index="2" disallow="tram rail_urban rail rail_electric rail_fast ship" speed="22.22" length="8.21" shape="4736.36,5452.84 4733.96,5452.61 4732.35,5452.08 4730.74,5451.55 4728.34,5451.33"/>
    </edge>
    <edge id=":point92_0" function="internal">
        <lane id=":point92_0_0" index="0" disallow="tram rail_urban rail rail_electric rail_fast ship" speed="7.34" length="11.72" shape="5034.04,5461.86 5033.63,5458.03 5032.54,5455.30 5030.76,5453.67 5028.31,5453.14"/>
    </edge>
    <edge id=":point92_1" function="internal">
        <lane id=":point92_1_0" index="0" disallow="tram rail_urban rail rail_electric rail_fast ship" speed="13.89" length="27.36" shape="5034.04,5461.86 5034.41,5453.26 5035.45,5446.90 5036.54,5441.23 5037.05,5434.68"/>
        <lane id=":point92_1_1" index="1" disallow="tram rail_urban rail rail_electric rail_fast ship" speed="13.89" length="27.36" shape="5037.24,5461.80 5037.61,5453.22 5038.65,5446.88 5039.74,5441.23 5040.25,5434.69"/>
    </edge>
    <edge id=":point92_3" function="internal">
        <lane id=":point92_3_0" index="0" disallow="tram rail_urban rail rail_electric rail_fast ship" speed="10.46" length="7.15" shape="5040.44,5461.74 5041.29,5455.11 5041.53,5454.71"/>
    </edge>
    <edge id=":point92_16" function="internal">
        <lane id=":point92_16_0" index="0" disallow="tram rail_urban rail rail_electric rail_fast ship" speed="10.46" length="17.54" shape="5041.53,5454.71 5044.10,5450.30 5048.87,5447.32 5055.59,5446.16"/>
    </edge>
    <edge id=":point92_4" function="internal">
        <lane id=":point92_4_0" index="0" disallow="tram rail_urban rail rail_electric rail_fast ship" speed="7.46" length="12.04" shape="5055.89,5455.71 5051.91,5456.20 5049.08,5457.35 5047.41,5459.15 5046.89,5461.61"/>
    </edge>
    <edge id=":point92_5" function="internal">
        <lane id=":point92_5_0" index="0" disallow="tram rail_urban rail rail_electric rail_fast ship" speed="22.22" length="27.72" shape="5055.89,5455.71 5047.15,5455.50 5040.66,5454.58 5034.89,5453.57 5028.31,5453.14"/>
        <lane id=":point92_5_1" index="1" disallow="tram rail_urban rail rail_electric rail_fast ship" speed="22.22" length="27.72" shape="5055.79,5452.51 5047.07,5452.30 5040.61,5451.38 5034.85,5450.37 5028.28,5449.94"/>
    </edge>
    <edge id=":point92_7" function="internal">
        <lane id=":point92_7_0" index="0" disallow="tram rail_urban rail rail_electric rail_fast ship" speed="10.21" length="24.46" shape="5055.69,5449.31 5048.92,5448.61 5044.09,5445.93 5041.20,5441.30 5040.25,5434.69"/>
    </edge>
    <edge id=":point92_8" function="internal">
        <lane id=":point92_8_0" index="0" disallow="tram rail_urban rail rail_electric rail_fast ship" speed="7.13" length="11.34" shape="5049.85,5434.71 5050.20,5438.39 5051.25,5440.99 5053.01,5442.52 5055.48,5442.96"/>
    </edge>
    <edge id=":point92_9" function="internal">
        <lane id=":point92_9_0" index="0" disallow="tram rail_urban rail rail_electric rail_fast ship" speed="13.89" length="27.14" shape="5049.85,5434.71 5049.35,5443.22 5048.28,5449.48 5047.26,5455.09 5046.89,5461.61"/>
        <lane id=":point92_9_1" index="1" disallow="tram rail_urban rail rail_electric rail_fast ship" speed="13.89" length="27.14" shape="5046.65,5434.70 5046.15,5443.23 5045.08,5449.53 5044.06,5455.15 5043.69,5461.67"/>
    </edge>
    <edge id=":point92_11" function="internal">
        <lane id=":point92_11_0" index="0" disallow="tram rail_urban rail rail_electric rail_fast ship" speed="10.40" length="7.11" shape="5043.45,5434.70 5042.49,5441.31 5042.27,5441.68"/>
    </edge>
    <edge id=":point92_17" function="internal">
        <lane id=":point92_17_0" index="0" disallow="tram rail_urban rail rail_electric rail_fast ship" speed="10.40" length="17.35" shape="5042.27,5441.68 5039.64,5446.06 5034.90,5448.94 5028.28,5449.94"/>
    </edge>
    <edge id=":point92_12" function="internal">
        <lane id=":point92_12_0" index="0" disallow="tram rail_urban rail rail_electric rail_fast ship" speed="7.38" length="11.80" shape="5028.18,5440.36 5032.06,5439.97 5034.83,5438.89 5036.49,5437.13 5037.05,5434.68"/>
    </edge>
    <edge id=":point92_13" function="internal">
        <lane id=":point92_13_0" index="0" disallow="tram rail_urban rail rail_electric rail_fast ship" speed="22.22" length="27.51" shape="5028.18,5440.36 5036.83,5440.75 5043.23,5441.73 5048.93,5442.67 5055.48,5442.96"/>
        <lane id=":point92_13_1" index="1" disallow="tram rail_urban rail rail_electric rail_fast ship" speed="22.22" length="27.51" shape="5028.21,5443.56 5036.88,5443.95 5043.31,5444.93 5049.03,5445.87 5055.59,5446.16"/>
    </edge>
    <edge id=":point92_15" function="internal">
        <lane id=":point92_15_0" index="0" disallow="tram rail_urban rail rail_electric rail_fast ship" speed="10.38" length="24.43" shape="5028.25,5446.76 5034.89,5447.63 5039.68,5450.40 5042.61,5455.09 5043.69,5461.67"/>
    </edge>

    <edge id="-107181" from="-112684" to="J92" priority="4" type="highway.unclassified">
        <lane id="-107181_0" index="0" disallow="tram rail_urban rail rail_electric rail_fast ship" speed="13.89" length="472.62" shape="5047.95,5998.10 5038.29,5525.58"/>
        <lane id="-107181_1" index="1" disallow="tram rail_urban rail rail_electric rail_fast ship" speed="13.89" length="472.62" shape="5051.15,5998.03 5041.49,5525.51"/>
    </edge>
    <edge id="genE1111" from="point198" to="-116361" priority="3" type="highway.residential" shape="5035.60,5198.93 5039.05,5339.18 5040.33,5391.57">
        <lane id="genE1111_0" index="0" disallow="tram rail_urban rail rail_electric rail_fast ship" speed="13.89" length="188.72" shape="5040.40,5198.81 5043.85,5339.06 5045.03,5387.48"/>
        <lane id="genE1111_1" index="1" disallow="tram rail_urban rail rail_electric rail_fast ship" speed="13.89" length="188.72" shape="5037.20,5198.89 5040.65,5339.14 5041.83,5387.56"/>
    </edge>
    <edge id="genE1112" from="-116361" to="point198" priority="3" type="highway.residential" shape="5040.33,5391.57 5039.05,5339.18 5035.60,5198.93">
        <lane id="genE1112_0" index="0" disallow="tram rail_urban rail rail_electric rail_fast ship" speed="13.89" length="188.72" shape="5035.43,5387.71 5034.25,5339.30 5030.80,5199.05"/>
        <lane id="genE1112_1" index="1" disallow="tram rail_urban rail rail_electric rail_fast ship" speed="13.89" length="188.72" shape="5038.63,5387.64 5037.45,5339.22 5034.00,5198.97"/>
    </edge>
    <edge id="genE521" from="point92" to="-116361" priority="4" type="highway.unclassified" shape="5041.82,5448.21 5041.90,5412.22 5040.33,5391.57">
        <lane id="genE521_0" index="0" disallow="tram rail_urban rail rail_electric rail_fast ship" speed="13.89" length="39.00" shape="5037.05,5434.68 5037.10,5412.40 5035.84,5395.86"/>
        <lane id="genE521_1" index="1" disallow="tram rail_urban rail rail_electric rail_fast ship" speed="13.89" length="39.00" shape="5040.25,5434.69 5040.30,5412.28 5039.03,5395.61"/>
    </edge>
    <edge id="genE522" from="-116361" to="point92" priority="4" type="highway.unclassified" shape="5040.33,5391.57 5041.90,5412.22 5041.82,5448.21">
        <lane id="genE522_0" index="0" disallow="tram rail_urban rail rail_electric rail_fast ship" speed="13.89" length="39.62" shape="5048.61,5394.89 5049.90,5411.93 5049.85,5434.71"/>
        <lane id="genE522_1" index="1" disallow="tram rail_urban rail rail_electric rail_fast ship" speed="13.89" length="39.62" shape="5045.41,5395.13 5046.70,5412.04 5046.65,5434.70"/>
        <lane id="genE522_2" index="2" disallow="tram rail_urban rail rail_electric rail_fast ship" speed="13.89" length="39.62" shape="5042.22,5395.37 5043.50,5412.16 5043.45,5434.70"/>
    </edge>
    <edge id="genE523" from="point92" to="point93" priority="10" type="highway.tertiary" spreadType="center" shape="5041.65,5445.01 5187.05,5440.33 5391.36,5440.17">
        <lane id="genE523_0" index="0" disallow="tram rail_urban rail rail_electric rail_fast ship" speed="22.22" length="335.89" shape="5055.48,5442.96 5187.02,5438.73 5391.36,5438.57"/>
        <lane id="genE523_1" index="1" disallow="tram rail_urban rail rail_electric rail_fast ship" speed="22.22" length="335.89" shape="5055.59,5446.16 5187.08,5441.93 5391.36,5441.77"/>
    </edge>
    <edge id="genE524" from="J93" to="point92" priority="10" type="highway.tertiary" spreadType="center" shape="5128.91,5449.88 5041.85,5453.01">
        <lane id="genE524_0" index="0" disallow="tram rail_urban rail rail_electric rail_fast ship" speed="22.22" length="69.17" shape="5125.04,5453.22 5055.89,5455.71"/>
        <lane id="genE524_1" index="1" disallow="tram rail_urban rail rail_electric rail_fast ship" speed="22.22" length="69.17" shape="5124.92,5450.02 5055.79,5452.51"/>
        <lane id="genE524_2" index="2" disallow="tram rail_urban rail rail_electric rail_fast ship" speed="22.22" length="69.17" shape="5124.81,5446.83 5055.69,5449.31"/>
    </edge>
    <edge id="genE525" from="point92" to="-112684" priority="4" type="highway.unclassified">
        <lane id="genE525_0" index="0" disallow="tram rail_urban rail rail_electric rail_fast ship" speed="13.89" length="536.40" shape="5046.89,5461.61 5057.55,5997.90"/>
        <lane id="genE525_1" index="1" disallow="tram rail_urban rail rail_electric rail_fast ship" speed="13.89" length="536.40" shape="5043.69,5461.67 5054.35,5997.97"/>
    </edge>
    <edge id="genE526" from="J92" to="point92" priority="4" type="highway.unclassified">
        <lane id="genE526_0" index="0" disallow="tram rail_urban rail rail_electric rail_fast ship" speed="13.89" length="55.78" shape="5034.95,5517.63 5034.04,5461.86"/>
        <lane id="genE526_1" index="1" disallow="tram rail_urban rail rail_electric rail_fast ship" speed="13.89" length="55.78" shape="5038.15,5517.58 5037.24,5461.80"/>
        <lane id="genE526_2" index="2" disallow="tram rail_urban rail rail_electric rail_fast ship" speed="13.89" length="55.78" shape="5041.35,5517.52 5040.44,5461.74"/>
    </edge>
    <edge id="genE527" from="point92" to="J98" priority="10" type="highway.tertiary" spreadType="center" shape="5041.88,5451.41 4732.38,5454.48">
        <lane id="genE527_0" index="0" disallow="tram rail_urban rail rail_electric rail_fast ship" speed="22.22" length="291.93" shape="5028.31,5453.14 4736.40,5456.04"/>
        <lane id="genE527_1" index="1" disallow="tram rail_urban rail rail_electric rail_fast ship" speed="22.22" length="291.93" shape="5028.28,5449.94 4736.36,5452.84"/>
    </edge>
    <edge id="genE528" from="-111337" to="point92" priority="10" type="highway.tertiary" spreadType="center" shape="4935.62,5444.55 5041.94,5443.41">
        <lane id="genE528_0" index="0" disallow="tram rail_urban rail rail_electric rail_fast ship" speed="22.22" length="88.60" shape="4939.59,5441.31 5028.18,5440.36"/>
        <lane id="genE528_1" index="1" disallow="tram rail_urban rail rail_electric rail_fast ship" speed="22.22" length="88.60" shape="4939.62,5444.51 5028.21,5443.56"/>
        <lane id="genE528_2" index="2" disallow="tram rail_urban rail rail_electric rail_fast ship" speed="22.22" length="88.60" shape="4939.65,5447.71 5028.25,5446.76"/>
    </edge>
    <edge id="genE533" from="point93" to="J93" priority="10" type="highway.tertiary" spreadType="center" shape="5391.40,5446.57 5218.96,5448.29 5128.91,5449.88">
        <lane id="genE533_0" index="0" disallow="tram rail_urban rail rail_electric rail_fast ship" speed="22.22" length="258.52" shape="5391.42,5448.17 5218.98,5449.89 5132.93,5451.41"/>
        <lane id="genE533_1" index="1" disallow="tram rail_urban rail rail_electric rail_fast ship" speed="22.22" length="258.52" shape="5391.38,5444.97 5218.94,5446.69 5132.87,5448.21"/>
    </edge>
    <edge id="genE568" from="point98" to="-111337" priority="10" type="highway.tertiary" spreadType="center" shape="4606.43,5448.00 4720.89,5446.46 4935.62,5444.55">
        <lane id="genE568_0" index="0" disallow="tram rail_urban rail rail_electric rail_fast ship" speed="22.22" length="325.21" shape="4606.41,5446.40 4720.87,5444.86 4931.61,5442.99"/>
        <lane id="genE568_1" index="1" disallow="tram rail_urban rail rail_electric rail_fast ship" speed="22.22" length="325.21" shape="4606.45,5449.60 4720.91,5448.06 4931.63,5446.19"/>
    </edge>
    <edge id="genE569" from="J98" to="point98" priority="10" type="highway.tertiary" spreadType="center" shape="4732.38,5454.48 4720.80,5454.63 4606.42,5456.00">
        <lane id="genE569_0" index="0" disallow="tram rail_urban rail rail_electric rail_fast ship" speed="22.22" length="121.77" shape="4728.42,5457.73 4720.84,5457.83 4606.66,5459.20"/>
        <lane id="genE569_1" index="1" disallow="tram rail_urban rail rail_electric rail_fast ship" speed="22.22" length="121.77" shape="4728.38,5454.53 4720.80,5454.63 4606.62,5456.00"/>
        <lane id="genE569_2" index="2" disallow="tram rail_urban rail rail_electric rail_fast ship" speed="22.22" length="121.77" shape="4728.34,5451.33 4720.76,5451.43 4606.58,5452.80"/>
    </edge>

    <tlLogic id="point92" type="static" programID="0" offset="0">
        <phase duration="29" state="rrrrGGGrrrrrGGGr"/>
        <phase duration="5"  state="rrrryyyrrrrryyyr"/>
        <phase duration="6"  state="rrrrrrrGrrrrrrrG"/>
        <phase duration="5"  state="rrrrrrryrrrrrrry"/>
        <phase duration="29" state="GGGgrrrrGGGgrrrr"/>
        <phase duration="5"  state="yyygrrrryyygrrrr"/>
        <phase duration="6"  state="rrrGrrrrrrrGrrrr"/>
        <phase duration="5"  state="rrryrrrrrrryrrrr"/>
    </tlLogic>

    <junction id="-111337" type="priority" x="4935.62" y="5444.55" incLanes="genE568_0 genE568_1" intLanes=":-111337_0_0 :-111337_0_1 :-111337_0_2" shape="4939.67,5449.31 4939.57,5439.71 4936.59,5440.15 4934.57,5440.94 4933.31,5441.25 4931.59,5441.39 4931.65,5447.79 4934.64,5448.17 4936.68,5448.92 4937.94,5449.21">
        <request index="0" response="000" foes="000" cont="0"/>
        <request index="1" response="000" foes="000" cont="0"/>
        <request index="2" response="000" foes="000" cont="0"/>
    </junction>
    <junction id="-112684" type="priority" x="5052.75" y="5998.00" incLanes="genE525_0 genE525_1" intLanes=":-112684_0_0" shape="5052.75,5998.00 5046.35,5998.13 5059.15,5997.87">
        <request index="0" response="0" foes="0" cont="0"/>
    </junction>
    <junction id="-116361" type="priority" x="5040.33" y="5391.57" incLanes="genE521_0 genE521_1 genE1111_0 genE1111_1" intLanes=":-116361_0_0 :-116361_0_1 :-116361_2_0 :-116361_2_1 :-116361_2_2" shape="5034.25,5395.98 5050.20,5394.76 5049.16,5391.97 5048.34,5391.11 5047.53,5390.25 5046.91,5389.11 5046.63,5387.44 5033.83,5387.75">
        <request index="0" response="00000" foes="00000" cont="0"/>
        <request index="1" response="00000" foes="00000" cont="0"/>
        <request index="2" response="00000" foes="00000" cont="0"/>
        <request index="3" response="00000" foes="00000" cont="0"/>
        <request index="4" response="00000" foes="00000" cont="0"/>
    </junction>
    <junction id="J92" type="priority" x="5043.01" y="5521.49" incLanes="-107181_0 -107181_1" intLanes=":J92_0_0 :J92_0_1 :J92_0_2" shape="5036.69,5525.61 5043.09,5525.48 5042.95,5517.50 5033.35,5517.65 5034.23,5520.68 5035.80,5522.59 5036.42,5523.82">
        <request index="0" response="000" foes="000" cont="0"/>
        <request index="1" response="000" foes="000" cont="0"/>
        <request index="2" response="000" foes="000" cont="0"/>
    </junction>
    <junction id="J93" type="priority" x="5128.91" y="5449.88" incLanes="genE533_0 genE533_1" intLanes=":J93_0_0 :J93_0_1 :J93_0_2" shape="5132.96,5453.01 5132.84,5446.61 5129.83,5446.25 5128.80,5445.89 5127.76,5445.54 5126.49,5445.28 5124.75,5445.23 5125.09,5454.82 5128.03,5454.30 5129.02,5453.89 5130.02,5453.48 5131.25,5453.16">
        <request index="0" response="000" foes="000" cont="0"/>
        <request index="1" response="000" foes="000" cont="0"/>
        <request index="2" response="000" foes="000" cont="0"/>
    </junction>
    <junction id="J98" type="priority" x="4732.38" y="5454.48" incLanes="genE527_0 genE527_1" intLanes=":J98_0_0 :J98_0_1 :J98_0_2" shape="4736.41,5457.64 4736.35,5451.24 4733.36,5450.86 4731.31,5450.11 4730.05,5449.83 4728.32,5449.73 4728.44,5459.33 4731.41,5458.88 4733.44,5458.08 4734.69,5457.78">
        <request index="0" response="000" foes="000" cont="0"/>
        <request index="1" response="000" foes="000" cont="0"/>
        <request index="2" response="000" foes="000" cont="0"/>
    </junction>
    <junction id="point198" type="dead_end" x="5035.60" y="5198.93" incLanes="genE1112_0 genE1112_1" intLanes="" shape="5035.60,5198.93 5029.20,5199.09 5035.60,5198.93"/>
    <junction id="point92" type="traffic_light" x="5041.82" y="5448.21" incLanes="genE526_0 genE526_1 genE526_2 genE524_0 genE524_1 genE524_2 genE522_0 genE522_1 genE522_2 genE528_0 genE528_1 genE528_2" intLanes=":point92_0_0 :point92_1_0 :point92_1_1 :point92_16_0 :point92_4_0 :point92_5_0 :point92_5_1 :point92_7_0 :point92_8_0 :point92_9_0 :point92_9_1 :point92_17_0 :point92_12_0 :point92_13_0 :point92_13_1 :point92_15_0" shape="5032.44,5461.90 5048.49,5461.58 5049.28,5459.32 5050.31,5458.51 5051.77,5457.90 5053.64,5457.50 5055.95,5457.31 5055.43,5441.36 5053.21,5440.68 5052.44,5439.77 5051.89,5438.47 5051.56,5436.78 5051.45,5434.71 5035.45,5434.68 5034.64,5436.91 5033.62,5437.70 5032.21,5438.27 5030.39,5438.62 5028.17,5438.76 5028.32,5454.74 5030.56,5455.52 5031.35,5456.51 5031.93,5457.91 5032.29,5459.70">
        <request index="0"  response="0000000001100000" foes="0000000001100000" cont="0"/>
        <request index="1"  response="1111000011100000" foes="1111100011100000" cont="0"/>
        <request index="2"  response="1111000011100000" foes="1111100011100000" cont="0"/>
        <request index="3"  response="1110011011100000" foes="1110011011100000" cont="1"/>
        <request index="4"  response="0000000000000000" foes="0000011000000000" cont="0"/>
        <request index="5"  response="0000100000001000" foes="1000111000001111" cont="0"/>
        <request index="6"  response="0000100000001000" foes="1000111000001111" cont="0"/>
        <request index="7"  response="0110100000001000" foes="0110111000001110" cont="0"/>
        <request index="8"  response="0110000000000000" foes="0110000000000000" cont="0"/>
        <request index="9"  response="1110000011110000" foes="1110000011111000" cont="0"/>
        <request index="10" response="1110000011110000" foes="1110000011111000" cont="0"/>
        <request index="11" response="1110000011100110" foes="1110000011100110" cont="1"/>
        <request index="12" response="0000000000000000" foes="0000000000000110" cont="0"/>
        <request index="13" response="0000100000001000" foes="0000111110001110" cont="0"/>
        <request index="14" response="0000100000001000" foes="0000111110001110" cont="0"/>
        <request index="15" response="0000100001101000" foes="0000111001101110" cont="0"/>
    </junction>
    <junction id="point93" type="dead_end" x="5391.31" y="5443.37" incLanes="genE523_0 genE523_1" intLanes="" shape="5391.31,5443.37 5391.37,5449.77 5391.30,5436.97"/>
    <junction id="point98" type="dead_end" x="4606.56" y="5451.20" incLanes="genE569_0 genE569_1 genE569_2" intLanes="" shape="4606.56,5451.20 4606.47,5444.80 4606.67,5460.80"/>

    <junction id=":point92_16_0" type="internal" x="5041.53" y="5454.71" incLanes=":point92_3_0 genE522_0 genE522_1" intLanes=":point92_5_0 :point92_5_1 :point92_7_0 :point92_8_0 :point92_9_0 :point92_9_1 :point92_13_0 :point92_13_1 :point92_15_0"/>
    <junction id=":point92_17_0" type="internal" x="5042.27" y="5441.68" incLanes=":point92_11_0 genE526_0 genE526_1" intLanes=":point92_0_0 :point92_1_0 :point92_1_1 :point92_5_0 :point92_5_1 :point92_7_0 :point92_13_0 :point92_13_1 :point92_15_0"/>

    <connection from="-107181" to="genE526" fromLane="0" toLane="0" via=":J92_0_0" dir="s" state="M"/>
    <connection from="-107181" to="genE526" fromLane="1" toLane="1" via=":J92_0_1" dir="s" state="M"/>
    <connection from="-107181" to="genE526" fromLane="1" toLane="2" via=":J92_0_2" dir="s" state="M"/>