<?xml version="1.0" encoding="UTF-8"?>

<!-- generated on 02/09/23 13:22:22 by Eclipse SUMO netedit Version 1.8.0
<configuration xmlns:xsi="http://www.w3.org/2001/XMLSchema-instance" xsi:noNamespaceSchemaLocation="http://sumo.dlr.de/xsd/netconvertConfiguration.xsd">

    <input>
        <sumo-net-file value="F:\tmp_sumo_network\yutanglu1207.net.xml"/>
    </input>

    <output>
        <output-file value="F:\tmp_sumo_network\yutanglu1207.net.xml"/>
    </output>

    <processing>
        <geometry.min-radius.fix.railways value="false"/>
        <geometry.max-grade.fix value="false"/>
        <offset.disable-normalization value="true"/>
        <lefthand value="false"/>
    </processing>

    <junctions>
        <no-turnarounds value="true"/>
        <junctions.corner-detail value="5"/>
        <junctions.limit-turn-speed value="5.5"/>
        <rectangular-lane-cut value="true"/>
    </junctions>

    <pedestrian>
        <walkingareas value="false"/>
    </pedestrian>

    <report>
        <aggregate-warnings value="5"/>
    </report>

</configuration>
-->

<net version="1.6" junctionCornerDetail="5" rectangularLaneCut="true" limitTurnSpeed="5.50" xmlns:xsi="http://www.w3.org/2001/XMLSchema-instance" xsi:noNamespaceSchemaLocation="http://sumo.dlr.de/xsd/net_file.xsd">

    <location netOffset="-327031.06,-3463733.95" convBoundary="0.00,0.00,725.03,417.58" origBoundary="0.000000,0.000000,0.000000,0.000000" projParameter="+proj=utm +zone=51 +ellps=WGS84 +datum=WGS84 +units=m +no_defs"/>

    <type id="bidirectional" priority="1" speed="1.39" disallow="pedestrian tram rail_urban rail rail_electric rail_fast ship" width="3.65"/>
    <type id="border" priority="0" speed="1.39" disallow="all" discard="0" width="0.10"/>
    <type id="driving" priority="1" speed="13.89" disallow="pedestrian tram rail_urban rail rail_electric rail_fast ship" width="3.65"/>
    <type id="entry" priority="1" speed="22.22" disallow="pedestrian tram rail_urban rail rail_electric rail_fast ship" width="3.65"/>
    <type id="exit" priority="1" speed="22.22" disallow="pedestrian tram rail_urban rail rail_electric rail_fast ship" width="3.65"/>
    <type id="median" priority="0" speed="1.39" disallow="all" discard="0" width="0.10"/>
    <type id="mwyEntry" priority="1" speed="22.22" allow="private emergency authority army vip passenger hov taxi bus coach delivery truck trailer motorcycle evehicle custom1 custom2" width="3.65"/>
    <type id="mwyExit" priority="1" speed="22.22" allow="private emergency authority army vip passenger hov taxi bus coach delivery truck trailer motorcycle evehicle custom1 custom2" width="3.65"/>
    <type id="none" priority="0" speed="1.39" disallow="all" discard="0" width="1.00"/>
    <type id="offRamp" priority="1" speed="22.22" allow="private emergency authority army vip passenger hov taxi bus coach delivery truck trailer motorcycle evehicle custom1 custom2" width="3.65"/>
    <type id="onRamp" priority="1" speed="22.22" allow="private emergency authority army vip passenger hov taxi bus coach delivery truck trailer motorcycle evehicle custom1 custom2" width="3.65"/>
    <type id="parking" priority="1" speed="1.39" disallow="pedestrian tram rail_urban rail rail_electric rail_fast ship" width="2.50"/>
    <type id="rail" priority="3" speed="33.33" allow="rail_urban rail rail_electric rail_fast" width="3.65"/>
    <type id="restricted" priority="0" speed="13.89" disallow="all" width="3.65"/>
    <type id="roadWorks" priority="0" speed="1.39" allow="authority" width="3.65"/>
    <type id="shoulder" priority="0" speed="1.39" disallow="all" discard="0" width="1.00"/>
    <type id="special1" priority="1" speed="22.22" allow="custom1" discard="0" width="3.65"/>
    <type id="special2" priority="1" speed="22.22" allow="custom2" discard="0" width="3.65"/>
    <type id="special3" priority="1" speed="22.22" allow="custom1 custom2" discard="0" width="3.65"/>
    <type id="stop" priority="1" speed="13.89" disallow="pedestrian tram rail_urban rail rail_electric rail_fast ship" width="3.65"/>
    <type id="tram" priority="2" speed="13.89" allow="tram" width="3.65"/>

    <edge id=":0KUyAFxYUW.75.5444242900_0" function="internal">
        <lane id=":0KUyAFxYUW.75.5444242900_0_0" index="0" disallow="pedestrian tram rail_urban rail rail_electric rail_fast ship" speed="13.89" length="8.37" width="3.97" shape="390.06,335.99,14.14 389.62,333.47,14.14 388.69,331.85,14.13 387.78,330.22,14.13 387.38,327.70,14.13"/>
        <lane id=":0KUyAFxYUW.75.5444242900_0_1" index="1" disallow="pedestrian tram rail_urban rail rail_electric rail_fast ship" speed="13.89" length="8.37" width="3.37" shape="394.09,335.95,14.14 393.59,333.44,14.14 392.54,331.84,14.13 391.51,330.25,14.13 391.05,327.74,14.13"/>
        <lane id=":0KUyAFxYUW.75.5444242900_0_2" index="2" disallow="pedestrian tram rail_urban rail rail_electric rail_fast ship" speed="13.89" length="8.37" width="3.31" shape="394.09,335.95,14.14 394.39,327.76,14.13">
            <neigh lane=":0KUyAFxYUW.75.5444242900_3_1"/>
        </lane>
    </edge>
    <edge id=":0KUyAFxYUW.75.5444242900_3" function="internal">
        <lane id=":0KUyAFxYUW.75.5444242900_3_0" index="0" disallow="pedestrian tram rail_urban rail rail_electric rail_fast ship" speed="13.89" length="8.37" width="3.73" shape="401.52,327.83,14.13 401.76,335.87,14.14"/>
        <lane id=":0KUyAFxYUW.75.5444242900_3_1" index="1" disallow="pedestrian tram rail_urban rail rail_electric rail_fast ship" speed="13.89" length="8.37" width="3.77" shape="397.92,327.79,14.13 398.01,335.91,14.14">
            <neigh lane=":0KUyAFxYUW.75.5444242900_0_2"/>
        </lane>
    </edge>
    <edge id=":0KUyAFxYUW.end_0" function="internal">
        <lane id=":0KUyAFxYUW.end_0_0" index="0" disallow="pedestrian tram rail_urban rail rail_electric rail_fast ship" speed="4.01" length="5.72" width="4.07" shape="399.23,417.55,14.14 398.28,419.04,14.14 397.31,419.54,14.14 396.32,419.07,14.14 395.32,417.61,14.14"/>
    </edge>
    <edge id=":31011410002_0" function="internal">
        <lane id=":31011410002_0_0" index="0" disallow="pedestrian tram rail_urban rail rail_electric rail_fast ship" speed="8.87" length="17.43" width="3.48" shape="386.36,246.50,14.19 385.67,241.28,14.31 383.82,237.57,14.41 380.78,235.38,14.49 376.57,234.70,14.59">
            <param key="origId" value="8fPNJ5EGRo_-1"/>
        </lane>
    </edge>
    <edge id=":31011410002_1" function="internal">
        <lane id=":31011410002_1_0" index="0" disallow="pedestrian tram rail_urban rail rail_electric rail_fast ship" speed="13.89" length="36.19" width="3.87" shape="386.36,246.50,14.19 387.72,210.34,14.25">
            <param key="origId" value="353Eh23lN8_-2"/>
        </lane>
        <lane id=":31011410002_1_1" index="1" disallow="pedestrian tram rail_urban rail rail_electric rail_fast ship" speed="13.89" length="36.19" width="3.89" shape="390.03,246.45,14.19 391.60,210.29,14.25">
            <param key="origId" value="353Eh23lN8_-1"/>
        </lane>
    </edge>
    <edge id=":31011410002_3" function="internal">
        <lane id=":31011410002_3_0" index="0" disallow="pedestrian tram rail_urban rail rail_electric rail_fast ship" speed="11.95" length="15.77" width="3.34" shape="393.37,246.40,14.19 394.23,235.33,14.24 395.90,230.96,14.26"/>
    </edge>
    <edge id=":31011410002_4" function="internal">
        <lane id=":31011410002_4_0" index="0" disallow="pedestrian tram rail_urban rail rail_electric rail_fast ship" speed="11.41" length="13.30" width="3.68" shape="393.37,246.40,14.19 394.25,236.86,14.24 395.75,233.46,14.25"/>
    </edge>
    <edge id=":31011410002_20" function="internal">
        <lane id=":31011410002_20_0" index="0" disallow="pedestrian tram rail_urban rail rail_electric rail_fast ship" speed="11.95" length="18.03" width="3.34" shape="395.90,230.96,14.26 397.23,227.47,14.28 402.35,222.83,14.31 409.59,221.40,14.34"/>
    </edge>
    <edge id=":31011410002_21" function="internal">
        <lane id=":31011410002_21_0" index="0" disallow="pedestrian tram rail_urban rail rail_electric rail_fast ship" speed="11.41" length="17.43" width="3.68" shape="395.75,233.46,14.25 397.23,230.11,14.27 402.32,226.12,14.30 409.52,224.91,14.34"/>
    </edge>
    <edge id=":31011410002_5" function="internal">
        <lane id=":31011410002_5_0" index="0" disallow="pedestrian tram rail_urban rail rail_electric rail_fast ship" speed="8.44" length="16.34" width="3.47" shape="409.30,235.06,14.34 405.38,235.69,14.30 402.61,237.77,14.27 400.98,241.30,14.24 400.49,246.29,14.19"/>
    </edge>
    <edge id=":31011410002_6" function="internal">
        <lane id=":31011410002_6_0" index="0" disallow="pedestrian tram rail_urban rail rail_electric rail_fast ship" speed="13.89" length="32.80" width="3.48" shape="409.30,235.06,14.34 376.57,234.70,14.59"/>
        <lane id=":31011410002_6_1" index="1" disallow="pedestrian tram rail_urban rail rail_electric rail_fast ship" speed="13.89" length="32.80" width="3.82" shape="409.37,231.83,14.34 376.51,231.05,14.59"/>
    </edge>
    <edge id=":31011410002_8" function="internal">
        <lane id=":31011410002_8_0" index="0" disallow="pedestrian tram rail_urban rail rail_electric rail_fast ship" speed="11.94" length="31.96" width="3.87" shape="409.44,228.47,14.34 400.01,227.17,14.31 393.25,223.71,14.29 389.15,218.10,14.27 387.72,210.34,14.25"/>
    </edge>
    <edge id=":31011410002_9" function="internal">
        <lane id=":31011410002_9_0" index="0" disallow="pedestrian tram rail_urban rail rail_electric rail_fast ship" speed="11.36" length="28.85" width="3.89" shape="409.44,228.47,14.34 401.71,227.20,14.32 396.16,223.74,14.30 392.79,218.11,14.27 391.60,210.29,14.25"/>
    </edge>
    <edge id=":31011410002_10" function="internal">
        <lane id=":31011410002_10_0" index="0" disallow="pedestrian tram rail_urban rail rail_electric rail_fast ship" speed="8.23" length="14.30" width="3.34" shape="403.26,210.16,14.25 403.71,215.03,14.28 404.91,218.52,14.30 406.87,220.65,14.32 409.59,221.40,14.34">
            <param key="origId" value="KTfQ_11RTU_-1"/>
        </lane>
    </edge>
    <edge id=":31011410002_11" function="internal">
        <lane id=":31011410002_11_0" index="0" disallow="pedestrian tram rail_urban rail rail_electric rail_fast ship" speed="13.89" length="36.22" width="3.47" shape="403.26,210.16,14.25 402.88,220.73,14.23 401.88,230.10,14.22 400.89,238.53,14.20 400.49,246.29,14.19">
            <param key="origId" value="IH6J-mO9D-_-2"/>
        </lane>
        <lane id=":31011410002_11_1" index="1" disallow="pedestrian tram rail_urban rail rail_electric rail_fast ship" speed="13.89" length="36.22" width="3.74" shape="398.95,210.21,14.25 396.89,246.34,14.19">
            <param key="origId" value="IH6J-mO9D-_-1"/>
        </lane>
    </edge>
    <edge id=":31011410002_13" function="internal">
        <lane id=":31011410002_13_0" index="0" disallow="pedestrian tram rail_urban rail rail_electric rail_fast ship" speed="12.31" length="13.45" width="3.48" shape="395.20,210.25,14.25 394.14,220.83,14.35 392.97,223.39,14.38"/>
    </edge>
    <edge id=":31011410002_14" function="internal">
        <lane id=":31011410002_14_0" index="0" disallow="pedestrian tram rail_urban rail rail_electric rail_fast ship" speed="11.78" length="11.27" width="3.82" shape="395.20,210.25,14.25 394.12,219.24,14.35 393.07,221.19,14.37"/>
    </edge>
    <edge id=":31011410002_22" function="internal">
        <lane id=":31011410002_22_0" index="0" disallow="pedestrian tram rail_urban rail rail_electric rail_fast ship" speed="12.31" length="21.42" width="3.48" shape="392.97,223.39,14.38 390.68,228.44,14.44 384.82,233.06,14.51 376.57,234.70,14.59"/>
    </edge>
    <edge id=":31011410002_23" function="internal">
        <lane id=":31011410002_23_0" index="0" disallow="pedestrian tram rail_urban rail rail_electric rail_fast ship" speed="11.78" length="20.57" width="3.82" shape="393.07,221.19,14.37 390.64,225.70,14.43 384.77,229.64,14.50 376.51,231.05,14.59"/>
    </edge>
    <edge id=":31011410002_15" function="internal">
        <lane id=":31011410002_15_0" index="0" disallow="pedestrian tram rail_urban rail rail_electric rail_fast ship" speed="8.76" length="17.00" width="3.87" shape="376.33,220.05,14.59 381.35,219.37,14.49 384.92,217.53,14.41 387.04,214.51,14.33 387.72,210.34,14.25"/>
    </edge>
    <edge id=":31011410002_16" function="internal">
        <lane id=":31011410002_16_0" index="0" disallow="pedestrian tram rail_urban rail rail_electric rail_fast ship" speed="13.89" length="33.22" width="3.34" shape="376.33,220.05,14.59 409.59,221.40,14.34"/>
        <lane id=":31011410002_16_1" index="1" disallow="pedestrian tram rail_urban rail rail_electric rail_fast ship" speed="13.89" length="33.22" width="3.68" shape="376.39,223.61,14.59 409.52,224.91,14.34"/>
    </edge>
    <edge id=":31011410002_18" function="internal">
        <lane id=":31011410002_18_0" index="0" disallow="pedestrian tram rail_urban rail rail_electric rail_fast ship" speed="12.31" length="34.87" width="3.47" shape="376.45,227.25,14.59 386.86,228.30,14.47 394.33,231.82,14.38 398.88,237.81,14.29 400.49,246.29,14.19"/>
    </edge>
    <edge id=":31011410002_19" function="internal">
        <lane id=":31011410002_19_0" index="0" disallow="pedestrian tram rail_urban rail rail_electric rail_fast ship" speed="11.80" length="31.90" width="3.74" shape="376.45,227.25,14.59 385.28,228.32,14.48 391.63,231.86,14.39 395.50,237.87,14.30 396.89,246.34,14.19"/>
    </edge>
    <edge id=":4xnhzLD_vP.143.8795332000_0" function="internal">
        <lane id=":4xnhzLD_vP.143.8795332000_0_0" index="0" disallow="pedestrian tram rail_urban rail rail_electric rail_fast ship" speed="13.89" length="8.43" width="3.75" shape="387.87,147.85,14.54 388.02,139.83,14.58"/>
        <lane id=":4xnhzLD_vP.143.8795332000_0_1" index="1" disallow="pedestrian tram rail_urban rail rail_electric rail_fast ship" speed="13.89" length="8.43" width="3.81" shape="391.75,147.92,14.54 391.80,139.79,14.58">
            <neigh lane=":4xnhzLD_vP.143.8795332000_2_3"/>
        </lane>
    </edge>
    <edge id=":4xnhzLD_vP.143.8795332000_2" function="internal">
        <lane id=":4xnhzLD_vP.143.8795332000_2_0" index="0" disallow="pedestrian tram rail_urban rail rail_electric rail_fast ship" speed="13.89" length="8.43" width="4.43" shape="399.71,139.72,14.58 400.32,142.33,14.57 401.61,143.92,14.56 402.88,145.52,14.55 403.41,148.13,14.54"/>
        <lane id=":4xnhzLD_vP.143.8795332000_2_1" index="1" disallow="pedestrian tram rail_urban rail rail_electric rail_fast ship" speed="13.89" length="8.43" width="4.19" shape="399.71,139.72,14.58 399.10,148.05,14.54"/>
        <lane id=":4xnhzLD_vP.143.8795332000_2_2" index="2" disallow="pedestrian tram rail_urban rail rail_electric rail_fast ship" speed="13.89" length="8.43" width="4.19" shape="395.74,139.76,14.58 396.29,142.31,14.57 397.47,143.90,14.56 398.62,145.49,14.55 399.10,148.05,14.54"/>
        <lane id=":4xnhzLD_vP.143.8795332000_2_3" index="3" disallow="pedestrian tram rail_urban rail rail_electric rail_fast ship" speed="13.89" length="8.43" width="3.32" shape="395.74,139.76,14.58 395.35,147.98,14.54">
            <neigh lane=":4xnhzLD_vP.143.8795332000_0_1"/>
        </lane>
    </edge>
    <edge id=":4xnhzLD_vP.91.5608633800_0" function="internal">
        <lane id=":4xnhzLD_vP.91.5608633800_0_0" index="0" disallow="pedestrian tram rail_urban rail rail_electric rail_fast ship" speed="13.89" length="8.42" width="4.25" shape="387.54,95.81,14.72 387.01,87.82,14.75"/>
        <lane id=":4xnhzLD_vP.91.5608633800_0_1" index="1" disallow="pedestrian tram rail_urban rail rail_electric rail_fast ship" speed="13.89" length="8.42" width="3.80" shape="391.32,95.75,14.72 391.03,87.60,14.75">
            <neigh lane=":4xnhzLD_vP.91.5608633800_2_2"/>
        </lane>
    </edge>
    <edge id=":4xnhzLD_vP.91.5608633800_2" function="internal">
        <lane id=":4xnhzLD_vP.91.5608633800_2_0" index="0" disallow="pedestrian tram rail_urban rail rail_electric rail_fast ship" speed="7.64" length="8.42" width="3.87" shape="402.58,86.94,14.75 402.15,89.60,14.74 400.97,91.27,14.73 399.76,92.95,14.73 399.23,95.61,14.72"/>
        <lane id=":4xnhzLD_vP.91.5608633800_2_1" index="1" disallow="pedestrian tram rail_urban rail rail_electric rail_fast ship" speed="13.89" length="8.42" width="3.87" shape="399.13,87.14,14.75 399.23,95.61,14.72"/>
        <lane id=":4xnhzLD_vP.91.5608633800_2_2" index="2" disallow="pedestrian tram rail_urban rail rail_electric rail_fast ship" speed="13.89" length="8.42" width="4.07" shape="395.03,87.37,14.75 395.26,95.68,14.72">
            <neigh lane=":4xnhzLD_vP.91.5608633800_0_1"/>
        </lane>
    </edge>
    <edge id=":4xnhzLD_vP.begin_0" function="internal">
        <lane id=":4xnhzLD_vP.begin_0_0" index="0" disallow="pedestrian tram rail_urban rail rail_electric rail_fast ship" speed="4.05" length="5.86" width="4.22" shape="387.80,0.06,14.75 388.75,-1.47,14.75 389.74,-2.01,14.75 390.76,-1.54,14.75 391.81,-0.07,14.75"/>
    </edge>
    <edge id=":AyE3bDm3uL.11.9898415400_0" function="internal">
        <lane id=":AyE3bDm3uL.11.9898415400_0_0" index="0" disallow="pedestrian tram rail_urban rail rail_electric rail_fast ship" speed="13.89" length="3.02" width="4.10" shape="356.09,235.03,15.10 355.20,235.11,15.12 354.60,235.25,15.13 353.99,235.39,15.14 353.10,235.47,15.16"/>
        <lane id=":AyE3bDm3uL.11.9898415400_0_1" index="1" disallow="pedestrian tram rail_urban rail rail_electric rail_fast ship" speed="13.89" length="3.02" width="3.89" shape="356.03,231.38,15.10 353.02,231.47,15.16">
            <neigh lane=":AyE3bDm3uL.11.9898415400_2_2"/>
        </lane>
    </edge>
    <edge id=":AyE3bDm3uL.11.9898415400_2" function="internal">
        <lane id=":AyE3bDm3uL.11.9898415400_2_0" index="0" disallow="pedestrian tram rail_urban rail rail_electric rail_fast ship" speed="13.89" length="3.02" width="3.63" shape="352.82,220.03,15.16 353.71,220.08,15.14 354.32,220.20,15.13 354.93,220.33,15.12 355.82,220.38,15.10"/>
        <lane id=":AyE3bDm3uL.11.9898415400_2_1" index="1" disallow="pedestrian tram rail_urban rail rail_electric rail_fast ship" speed="13.89" length="3.02" width="3.50" shape="352.89,223.81,15.16 355.89,223.94,15.10"/>
        <lane id=":AyE3bDm3uL.11.9898415400_2_2" index="2" disallow="pedestrian tram rail_urban rail rail_electric rail_fast ship" speed="13.89" length="3.02" width="3.78" shape="352.95,227.58,15.16 355.95,227.58,15.10">
            <neigh lane=":AyE3bDm3uL.11.9898415400_0_1"/>
        </lane>
    </edge>
    <edge id=":AyE3bDm3uL.136.4961698000_0" function="internal">
        <lane id=":AyE3bDm3uL.136.4961698000_0_0" index="0" disallow="pedestrian tram rail_urban rail rail_electric rail_fast ship" speed="13.89" length="8.36" width="4.23" shape="234.15,235.26,15.58 226.10,235.37,15.40"/>
        <lane id=":AyE3bDm3uL.136.4961698000_0_1" index="1" disallow="pedestrian tram rail_urban rail rail_electric rail_fast ship" speed="13.89" length="8.36" width="3.88" shape="234.18,231.27,15.58 226.04,231.32,15.40">
            <neigh lane=":AyE3bDm3uL.136.4961698000_2_2"/>
        </lane>
    </edge>
    <edge id=":AyE3bDm3uL.136.4961698000_2" function="internal">
        <lane id=":AyE3bDm3uL.136.4961698000_2_0" index="0" disallow="pedestrian tram rail_urban rail rail_electric rail_fast ship" speed="13.89" length="8.36" width="3.94" shape="225.93,223.41,15.40 228.51,222.82,15.45 230.10,221.58,15.49 231.69,220.36,15.53 234.27,219.82,15.58"/>
        <lane id=":AyE3bDm3uL.136.4961698000_2_1" index="1" disallow="pedestrian tram rail_urban rail rail_electric rail_fast ship" speed="13.89" length="8.36" width="3.63" shape="225.93,223.41,15.40 234.24,223.61,15.58"/>
        <lane id=":AyE3bDm3uL.136.4961698000_2_2" index="2" disallow="pedestrian tram rail_urban rail rail_electric rail_fast ship" speed="13.89" length="8.36" width="3.90" shape="225.98,227.36,15.40 234.21,227.37,15.58">
            <neigh lane=":AyE3bDm3uL.136.4961698000_0_1"/>
        </lane>
    </edge>
    <edge id=":AyE3bDm3uL.253.9534973000_0" function="internal">
        <lane id=":AyE3bDm3uL.253.9534973000_0_0" index="0" disallow="pedestrian tram rail_urban rail rail_electric rail_fast ship" speed="13.89" length="8.54" width="4.24" shape="116.62,236.75,14.39 108.02,236.79,14.40"/>
        <lane id=":AyE3bDm3uL.253.9534973000_0_1" index="1" disallow="pedestrian tram rail_urban rail rail_electric rail_fast ship" speed="13.89" length="8.54" width="3.83" shape="116.58,232.70,14.39 108.11,232.75,14.40">
            <neigh lane=":AyE3bDm3uL.253.9534973000_2_2"/>
        </lane>
    </edge>
    <edge id=":AyE3bDm3uL.253.9534973000_2" function="internal">
        <lane id=":AyE3bDm3uL.253.9534973000_2_0" index="0" disallow="pedestrian tram rail_urban rail rail_electric rail_fast ship" speed="13.89" length="8.54" width="3.88" shape="108.37,221.22,14.40 110.89,221.82,14.40 112.43,223.06,14.40 113.98,224.26,14.39 116.49,224.79,14.39"/>
        <lane id=":AyE3bDm3uL.253.9534973000_2_1" index="1" disallow="pedestrian tram rail_urban rail rail_electric rail_fast ship" speed="13.89" length="8.54" width="3.88" shape="108.29,225.01,14.40 116.49,224.79,14.39"/>
        <lane id=":AyE3bDm3uL.253.9534973000_2_2" index="2" disallow="pedestrian tram rail_urban rail rail_electric rail_fast ship" speed="13.89" length="8.54" width="4.03" shape="108.20,228.92,14.40 116.54,228.74,14.39">
            <neigh lane=":AyE3bDm3uL.253.9534973000_0_1"/>
        </lane>
    </edge>
    <edge id=":AyE3bDm3uL.279.0062987000_0" function="internal">
        <lane id=":AyE3bDm3uL.279.0062987000_0_0" index="0" disallow="pedestrian tram rail_urban rail rail_electric rail_fast ship" speed="13.89" length="8.12" width="4.00" shape="91.39,236.88,14.45 88.89,237.45,14.46 87.36,238.69,14.46 85.83,239.92,14.47 83.34,240.44,14.48"/>
        <lane id=":AyE3bDm3uL.279.0062987000_0_1" index="1" disallow="pedestrian tram rail_urban rail rail_electric rail_fast ship" speed="13.89" length="8.12" width="4.28" shape="91.39,236.88,14.45 83.41,236.30,14.48"/>
        <lane id=":AyE3bDm3uL.279.0062987000_0_2" index="2" disallow="pedestrian tram rail_urban rail rail_electric rail_fast ship" speed="13.89" length="8.12" width="4.28" shape="91.39,232.84,14.45 88.92,233.40,14.46 87.40,234.60,14.46 85.88,235.80,14.47 83.41,236.30,14.48"/>
        <lane id=":AyE3bDm3uL.279.0062987000_0_3" index="3" disallow="pedestrian tram rail_urban rail rail_electric rail_fast ship" speed="13.89" length="8.12" width="3.57" shape="91.39,232.84,14.45 83.48,232.38,14.48">
            <neigh lane=":AyE3bDm3uL.279.0062987000_4_2"/>
        </lane>
    </edge>
    <edge id=":AyE3bDm3uL.279.0062987000_4" function="internal">
        <lane id=":AyE3bDm3uL.279.0062987000_4_0" index="0" disallow="pedestrian tram rail_urban rail rail_electric rail_fast ship" speed="13.89" length="8.12" width="3.59" shape="83.68,221.23,14.48 91.39,221.31,14.45"/>
        <lane id=":AyE3bDm3uL.279.0062987000_4_1" index="1" disallow="pedestrian tram rail_urban rail rail_electric rail_fast ship" speed="13.89" length="8.12" width="4.00" shape="83.61,224.99,14.48 91.39,225.10,14.45"/>
        <lane id=":AyE3bDm3uL.279.0062987000_4_2" index="2" disallow="pedestrian tram rail_urban rail rail_electric rail_fast ship" speed="13.89" length="8.12" width="3.83" shape="83.54,228.90,14.48 91.39,229.02,14.45">
            <neigh lane=":AyE3bDm3uL.279.0062987000_0_3"/>
        </lane>
    </edge>
    <edge id=":AyE3bDm3uL.end_0" function="internal">
        <lane id=":AyE3bDm3uL.end_0_0" index="0" disallow="pedestrian tram rail_urban rail rail_electric rail_fast ship" speed="3.82" length="5.08" width="3.86" shape="0.02,232.40,14.46 -1.30,231.55,14.46 -1.74,230.68,14.46 -1.32,229.81,14.46 -0.02,228.92,14.46"/>
    </edge>
    <edge id=":HK3TRJVTf7.139.1663131000_0" function="internal">
        <lane id=":HK3TRJVTf7.139.1663131000_0_0" index="0" disallow="pedestrian tram rail_urban rail rail_electric rail_fast ship" speed="13.89" length="8.31" width="4.00" shape="589.95,232.25,14.10 581.94,232.29,14.11"/>
        <lane id=":HK3TRJVTf7.139.1663131000_0_1" index="1" disallow="pedestrian tram rail_urban rail rail_electric rail_fast ship" speed="13.89" length="8.31" width="4.04" shape="589.90,228.21,14.10 581.90,228.27,14.11">
            <neigh lane=":HK3TRJVTf7.139.1663131000_2_1"/>
        </lane>
    </edge>
    <edge id=":HK3TRJVTf7.139.1663131000_2" function="internal">
        <lane id=":HK3TRJVTf7.139.1663131000_2_0" index="0" disallow="pedestrian tram rail_urban rail rail_electric rail_fast ship" speed="13.89" length="8.31" width="4.09" shape="581.82,220.15,14.11 584.34,220.76,14.11 585.84,222.14,14.10 587.34,223.51,14.10 589.86,224.12,14.10"/>
        <lane id=":HK3TRJVTf7.139.1663131000_2_1" index="1" disallow="pedestrian tram rail_urban rail rail_electric rail_fast ship" speed="13.89" length="8.31" width="4.09" shape="581.86,224.21,14.11 589.86,224.12,14.10">
            <neigh lane=":HK3TRJVTf7.139.1663131000_0_1"/>
        </lane>
    </edge>
    <edge id=":HK3TRJVTf7.161.2301276455_0" function="internal">
        <lane id=":HK3TRJVTf7.161.2301276455_0_0" index="0" disallow="pedestrian tram rail_urban rail rail_electric rail_fast ship" speed="13.89" length="7.70" width="4.01" shape="566.92,232.49,14.10 559.92,232.58,14.09"/>
        <lane id=":HK3TRJVTf7.161.2301276455_0_1" index="1" disallow="pedestrian tram rail_urban rail rail_electric rail_fast ship" speed="13.89" length="7.70" width="4.04" shape="566.88,228.47,14.10 559.87,228.55,14.09">
            <neigh lane=":HK3TRJVTf7.161.2301276455_2_2"/>
        </lane>
    </edge>
    <edge id=":HK3TRJVTf7.161.2301276455_2" function="internal">
        <lane id=":HK3TRJVTf7.161.2301276455_2_0" index="0" disallow="pedestrian tram rail_urban rail rail_electric rail_fast ship" speed="7.64" length="7.70" width="4.03" shape="559.72,216.91,14.09 562.23,217.43,14.09 563.78,218.62,14.09 565.33,219.82,14.10 567.83,220.35,14.10"/>
        <lane id=":HK3TRJVTf7.161.2301276455_2_1" index="1" disallow="pedestrian tram rail_urban rail rail_electric rail_fast ship" speed="13.89" length="7.70" width="4.03" shape="559.77,220.43,14.09 567.83,220.35,14.10"/>
        <lane id=":HK3TRJVTf7.161.2301276455_2_2" index="2" disallow="pedestrian tram rail_urban rail rail_electric rail_fast ship" speed="13.89" length="7.70" width="4.08" shape="559.82,224.49,14.09 567.87,224.40,14.10">
            <neigh lane=":HK3TRJVTf7.161.2301276455_0_1"/>
        </lane>
    </edge>
    <edge id=":HK3TRJVTf7.201.9952050959_0" function="internal">
        <lane id=":HK3TRJVTf7.201.9952050959_0_0" index="0" disallow="pedestrian tram rail_urban rail rail_electric rail_fast ship" speed="13.89" length="8.16" width="3.99" shape="527.15,232.97,14.09 519.15,233.19,14.09"/>
        <lane id=":HK3TRJVTf7.201.9952050959_0_1" index="1" disallow="pedestrian tram rail_urban rail rail_electric rail_fast ship" speed="13.89" length="8.16" width="4.18" shape="527.10,228.94,14.09 519.10,229.11,14.09">
            <neigh lane=":HK3TRJVTf7.201.9952050959_2_2"/>
        </lane>
    </edge>
    <edge id=":HK3TRJVTf7.201.9952050959_2" function="internal">
        <lane id=":HK3TRJVTf7.201.9952050959_2_0" index="0" disallow="pedestrian tram rail_urban rail rail_electric rail_fast ship" speed="7.64" length="8.16" width="3.01" shape="519.00,220.88,14.09 521.47,220.31,14.09 522.98,219.10,14.09 524.49,217.87,14.09 526.96,217.30,14.09"/>
        <lane id=":HK3TRJVTf7.201.9952050959_2_1" index="1" disallow="pedestrian tram rail_urban rail rail_electric rail_fast ship" speed="13.89" length="8.16" width="4.04" shape="519.00,220.88,14.09 527.00,220.82,14.09"/>
        <lane id=":HK3TRJVTf7.201.9952050959_2_2" index="2" disallow="pedestrian tram rail_urban rail rail_electric rail_fast ship" speed="13.89" length="8.16" width="4.08" shape="519.05,224.96,14.09 527.05,224.88,14.09">
            <neigh lane=":HK3TRJVTf7.201.9952050959_0_1"/>
        </lane>
    </edge>
    <edge id=":HK3TRJVTf7.221.5010418000_0" function="internal">
        <lane id=":HK3TRJVTf7.221.5010418000_0_0" index="0" disallow="pedestrian tram rail_urban rail rail_electric rail_fast ship" speed="13.89" length="8.11" width="3.87" shape="507.47,233.32,14.09 504.97,233.59,14.09 503.29,234.08,14.09 501.61,234.55,14.09 499.12,234.70,14.09"/>
        <lane id=":HK3TRJVTf7.221.5010418000_0_1" index="1" disallow="pedestrian tram rail_urban rail rail_electric rail_fast ship" speed="13.89" length="8.11" width="4.18" shape="507.40,229.24,14.09 504.95,229.51,14.09 503.31,230.03,14.09 501.67,230.51,14.09 499.23,230.68,14.09"/>
        <lane id=":HK3TRJVTf7.221.5010418000_0_2" index="2" disallow="pedestrian tram rail_urban rail rail_electric rail_fast ship" speed="13.89" length="8.11" width="1.54" shape="507.40,229.24,14.09 504.98,229.06,14.09 503.35,228.60,14.09 501.72,228.10,14.09 499.30,227.82,14.09">
            <neigh lane=":HK3TRJVTf7.221.5010418000_3_1"/>
        </lane>
    </edge>
    <edge id=":HK3TRJVTf7.221.5010418000_3" function="internal">
        <lane id=":HK3TRJVTf7.221.5010418000_3_0" index="0" disallow="pedestrian tram rail_urban rail rail_electric rail_fast ship" speed="13.89" length="8.11" width="4.04" shape="499.48,220.96,14.09 507.26,221.01,14.09"/>
        <lane id=":HK3TRJVTf7.221.5010418000_3_1" index="1" disallow="pedestrian tram rail_urban rail rail_electric rail_fast ship" speed="13.89" length="8.11" width="4.12" shape="499.38,224.99,14.09 507.33,225.09,14.09">
            <neigh lane=":HK3TRJVTf7.221.5010418000_0_2"/>
        </lane>
    </edge>
    <edge id=":HK3TRJVTf7.235.8897217000_0" function="internal">
        <lane id=":HK3TRJVTf7.235.8897217000_0_0" index="0" disallow="pedestrian tram rail_urban rail rail_electric rail_fast ship" speed="7.64" length="8.06" width="3.09" shape="492.96,234.53,14.09 490.48,235.14,14.09 489.01,236.55,14.09 487.54,237.95,14.08 485.06,238.57,14.08"/>