<?xml version="1.0" ?>
<routes>
	<vType accel="0.8" decel="4.5" id="CV" length="5" maxSpeed="45" sigma="0.5"/>
	<vType accel="0.8" decel="4.5" id="HV" length="5" maxSpeed="40" sigma="0.5"/>
	<vehicle depart="4.34" departLane="free" departSpeed="max" id="23589" type="HV">
		<route edges="genE316 genE297"/>
	</vehicle>
	<vehicle depart="8.75" departLane="free" departSpeed="max" id="23409" type="HV">
		<route edges="genE296 genE307"/>
	</vehicle>
	<vehicle depart="35.05" departLane="free" departSpeed="max" id="23524" type="HV">
		<route edges="genE296 genE317"/>
	</vehicle>
	<vehicle depart="44.25" departLane="free" departSpeed="max" id="23361" type="HV">
		<route edges="genE296 genE307"/>
	</vehicle>
	<vehicle depart="49.72" departLane="free" departSpeed="max" id="23356" type="HV">
		<route edges="genE296 genE307"/>
	</vehicle>
	<vehicle depart="54.44" departLane="free" departSpeed="max" id="23521" type="HV">
		<route edges="genE296 genE317"/>
	</vehicle>
	<vehicle depart="59.38" departLane="free" departSpeed="max" id="23393" type="HV">
		<route edges="genE296 genE307"/>
	</vehicle>
	<vehicle depart="62.73" departLane="free" departSpeed="max" id="23412" type="HV">
		<route edges="genE296 genE307"/>
	</vehicle>
	<vehicle depart="67.22" departLane="free" departSpeed="max" id="23673" type="HV">
		<route edges="genE316 genE317"/>
	</vehicle>
	<vehicle depart="81.5" departLane="free" departSpeed="max" id="23627" type="HV">
		<route edges="genE316 genE297"/>
	</vehicle>
	<vehicle depart="93.54" departLane="free" departSpeed="max" id="23246" type="HV">
		<route edges="genE318 genE297"/>
	</vehicle>
	<vehicle depart="95.06" departLane="free" departSpeed="max" id="23728" type="HV">
		<route edges="genE316 genE317"/>
	</vehicle>
	<vehicle depart="99.55" departLane="free" departSpeed="max" id="23450" type="CV">
		<route edges="genE296 genE317"/>
	</vehicle>
	<vehicle depart="101.01" departLane="free" departSpeed="max" id="23281" type="HV">
		<route edges="genE318 genE307"/>
	</vehicle>
	<vehicle depart="109.56" departLane="free" departSpeed="max" id="23719" type="HV">
		<route edges="genE316 genE317"/>
	</vehicle>
	<vehicle depart="112.6" departLane="free" departSpeed="max" id="23703" type="HV">
		<route edges="genE316 genE317"/>
	</vehicle>
	<vehicle depart="115.31" departLane="free" departSpeed="max" id="23312" type="HV">
		<route edges="genE318 genE307"/>
	</vehicle>
	<vehicle depart="116.62" departLane="free" departSpeed="max" id="23641" type="HV">
		<route edges="genE316 genE297"/>
	</vehicle>
	<vehicle depart="133.77" departLane="free" departSpeed="max" id="23322" type="HV">
		<route edges="genE318 genE307"/>
	</vehicle>
	<vehicle depart="134.37" departLane="free" departSpeed="max" id="23708" type="CV">
		<route edges="genE316 genE317"/>
	</vehicle>
	<vehicle depart="134.84" departLane="free" departSpeed="max" id="23308" type="CV">
		<route edges="genE318 genE307"/>
	</vehicle>
	<vehicle depart="149.92" departLane="free" departSpeed="max" id="23458" type="CV">
		<route edges="genE296 genE317"/>
	</vehicle>
	<vehicle depart="151.57" departLane="free" departSpeed="max" id="23593" type="HV">
		<route edges="genE316 genE297"/>
	</vehicle>
	<vehicle depart="156.44" departLane="free" departSpeed="max" id="23520" type="HV">
		<route edges="genE296 genE317"/>
	</vehicle>
	<vehicle depart="157.43" departLane="free" departSpeed="max" id="23329" type="HV">
		<route edges="genE318 genE307"/>
	</vehicle>
	<vehicle depart="159.77" departLane="free" departSpeed="max" id="23609" type="HV">
		<route edges="genE316 genE297"/>
	</vehicle>
	<vehicle depart="168.95" departLane="free" departSpeed="max" id="23442" type="CV">
		<route edges="genE296 genE317"/>
	</vehicle>
	<vehicle depart="182.49" departLane="free" departSpeed="max" id="23416" type="CV">
		<route edges="genE296 genE307"/>
	</vehicle>
	<vehicle depart="191.24" departLane="free" departSpeed="max" id="23560" type="HV">
		<route edges="genE316 genE297"/>
	</vehicle>
	<vehicle depart="200.84" departLane="free" departSpeed="max" id="23638" type="CV">
		<route edges="genE316 genE297"/>
	</vehicle>
	<vehicle depart="202.01" departLane="free" departSpeed="max" id="23705" type="HV">
		<route edges="genE316 genE317"/>
	</vehicle>
	<vehicle depart="222.56" departLane="free" departSpeed="max" id="23731" type="HV">
		<route edges="genE316 genE317"/>
	</vehicle>
	<vehicle depart="230.62" departLane="free" departSpeed="max" id="23466" type="HV">
		<route edges="genE296 genE317"/>
	</vehicle>
	<vehicle depart="233.75" departLane="free" departSpeed="max" id="23624" type="HV">
		<route edges="genE316 genE297"/>
	</vehicle>
	<vehicle depart="233.87" departLane="free" departSpeed="max" id="23346" type="HV">
		<route edges="genE296 genE307"/>
	</vehicle>
	<vehicle depart="255.62" departLane="free" departSpeed="max" id="23389" type="HV">
		<route edges="genE296 genE307"/>
	</vehicle>
	<vehicle depart="256.15" departLane="free" departSpeed="max" id="23575" type="HV">
		<route edges="genE316 genE297"/>
	</vehicle>
	<vehicle depart="264.02" departLane="free" departSpeed="max" id="23326" type="CV">
		<route edges="genE318 genE307"/>
	</vehicle>
	<vehicle depart="268.29" departLane="free" departSpeed="max" id="23434" type="HV">
		<route edges="genE296 genE307"/>
	</vehicle>
	<vehicle depart="271.87" departLane="free" departSpeed="max" id="23633" type="HV">
		<route edges="genE316 genE297"/>
	</vehicle>
	<vehicle depart="293.39" departLane="free" departSpeed="max" id="23276" type="HV">
		<route edges="genE318 genE307"/>
	</vehicle>
	<vehicle depart="299.97" departLane="free" departSpeed="max" id="23418" type="HV">
		<route edges="genE296 genE307"/>
	</vehicle>
	<vehicle depart="318.26" departLane="free" departSpeed="max" id="23272" type="CV">
		<route edges="genE318 genE307"/>
	</vehicle>
	<vehicle depart="320.3" departLane="free" departSpeed="max" id="23470" type="HV">
		<route edges="genE296 genE317"/>
	</vehicle>
	<vehicle depart="327.42" departLane="free" departSpeed="max" id="23511" type="CV">
		<route edges="genE296 genE317"/>
	</vehicle>
	<vehicle depart="329.01" departLane="free" departSpeed="max" id="23639" type="HV">
		<route edges="genE316 genE297"/>
	</vehicle>
	<vehicle depart="331.17" departLane="free" departSpeed="max" id="23717" type="HV">
		<route edges="genE316 genE317"/>
	</vehicle>
	<vehicle depart="362.08" departLane="free" departSpeed="max" id="23384" type="HV">
		<route edges="genE296 genE307"/>
	</vehicle>
	<vehicle depart="364.83" departLane="free" departSpeed="max" id="23709" type="HV">
		<route edges="genE316 genE317"/>
	</vehicle>
	<vehicle depart="371.39" departLane="free" departSpeed="max" id="23690" type="CV">
		<route edges="genE316 genE317"/>
	</vehicle>
	<vehicle depart="373.03" departLane="free" departSpeed="max" id="23506" type="HV">
		<route edges="genE296 genE317"/>
	</vehicle>
	<vehicle depart="377.35" departLane="free" departSpeed="max" id="23245" type="HV">
		<route edges="genE318 genE297"/>
	</vehicle>
	<vehicle depart="381.68" departLane="free" departSpeed="max" id="23490" type="CV">
		<route edges="genE296 genE317"/>
	</vehicle>
	<vehicle depart="382.28" departLane="free" departSpeed="max" id="23342" type="HV">
		<route edges="genE318 genE307"/>
	</vehicle>
	<vehicle depart="385.05" departLane="free" departSpeed="max" id="23341" type="HV">
		<route edges="genE318 genE307"/>
	</vehicle>
	<vehicle depart="386.17" departLane="free" departSpeed="max" id="23430" type="CV">
		<route edges="genE296 genE307"/>
	</vehicle>
	<vehicle depart="400.21" departLane="free" departSpeed="max" id="23570" type="HV">
		<route edges="genE316 genE297"/>
	</vehicle>
	<vehicle depart="429.48" departLane="free" departSpeed="max" id="23483" type="CV">
		<route edges="genE296 genE317"/>
	</vehicle>
	<vehicle depart="440.0" departLane="free" departSpeed="max" id="23266" type="HV">
		<route edges="genE318 genE297"/>
	</vehicle>
	<vehicle depart="441.07" departLane="free" departSpeed="max" id="23413" type="HV">
		<route edges="genE296 genE307"/>
	</vehicle>
	<vehicle depart="466.58" departLane="free" departSpeed="max" id="23480" type="CV">
		<route edges="genE296 genE317"/>
	</vehicle>
	<vehicle depart="483.03" departLane="free" departSpeed="max" id="23686" type="HV">
		<route edges="genE316 genE317"/>
	</vehicle>
	<vehicle depart="486.97" departLane="free" departSpeed="max" id="23616" type="CV">
		<route edges="genE316 genE297"/>
	</vehicle>
	<vehicle depart="488.36" departLane="free" departSpeed="max" id="23287" type="HV">
		<route edges="genE318 genE307"/>
	</vehicle>
	<vehicle depart="490.29" departLane="free" departSpeed="max" id="23457" type="HV">
		<route edges="genE296 genE317"/>
	</vehicle>
	<vehicle depart="501.66" departLane="free" departSpeed="max" id="23680" type="HV">
		<route edges="genE316 genE317"/>
	</vehicle>
	<vehicle depart="520.34" departLane="free" departSpeed="max" id="23474" type="HV">
		<route edges="genE296 genE317"/>
	</vehicle>
	<vehicle depart="529.52" departLane="free" departSpeed="max" id="23590" type="HV">
		<route edges="genE316 genE297"/>
	</vehicle>
	<vehicle depart="530.2" departLane="free" departSpeed="max" id="23400" type="HV">
		<route edges="genE296 genE307"/>
	</vehicle>
	<vehicle depart="535.5" departLane="free" departSpeed="max" id="23527" type="HV">
		<route edges="genE296 genE317"/>
	</vehicle>
	<vehicle depart="542.77" departLane="free" departSpeed="max" id="23539" type="HV">
		<route edges="genE296 genE317"/>
	</vehicle>
	<vehicle depart="552.19" departLane="free" departSpeed="max" id="23606" type="CV">
		<route edges="genE316 genE297"/>
	</vehicle>
	<vehicle depart="561.67" departLane="free" departSpeed="max" id="23691" type="HV">
		<route edges="genE316 genE317"/>
	</vehicle>
	<vehicle depart="568.22" departLane="free" departSpeed="max" id="23482" type="HV">
		<route edges="genE296 genE317"/>
	</vehicle>
	<vehicle depart="570.74" departLane="free" departSpeed="max" id="23484" type="HV">
		<route edges="genE296 genE317"/>
	</vehicle>
	<vehicle depart="571.08" departLane="free" departSpeed="max" id="23636" type="HV">
		<route edges="genE316 genE297"/>
	</vehicle>
	<vehicle depart="574.65" departLane="free" departSpeed="max" id="23543" type="HV">
		<route edges="genE296 genE317"/>
	</vehicle>
	<vehicle depart="578.09" departLane="free" departSpeed="max" id="23476" type="HV">
		<route edges="genE296 genE317"/>
	</vehicle>
	<vehicle depart="579.2" departLane="free" departSpeed="max" id="23344" type="HV">
		<route edges="genE296 genE307"/>
	</vehicle>
	<vehicle depart="579.93" departLane="free" departSpeed="max" id="23586" type="HV">
		<route edges="genE316 genE297"/>
	</vehicle>
	<vehicle depart="584.52" departLane="free" departSpeed="max" id="23669" type="HV">
		<route edges="genE316 genE317"/>
	</vehicle>
	<vehicle depart="585.47" departLane="free" departSpeed="max" id="23363" type="HV">
		<route edges="genE296 genE307"/>
	</vehicle>
	<vehicle depart="587.58" departLane="free" departSpeed="max" id="23658" type="HV">
		<route edges="genE316 genE317"/>
	</vehicle>
	<vehicle depart="588.41" departLane="free" departSpeed="max" id="23576" type="HV">
		<route edges="genE316 genE297"/>
	</vehicle>
	<vehicle depart="592.95" departLane="free" departSpeed="max" id="23291" type="HV">
		<route edges="genE318 genE307"/>
	</vehicle>
	<vehicle depart="605.47" departLane="free" departSpeed="max" id="23614" type="CV">
		<route edges="genE316 genE297"/>
	</vehicle>
	<vehicle depart="608.3" departLane="free" departSpeed="max" id="23661" type="HV">
		<route edges="genE316 genE317"/>
	</vehicle>
	<vehicle depart="634.78" departLane="free" departSpeed="max" id="23687" type="HV">
		<route edges="genE316 genE317"/>
	</vehicle>
	<vehicle depart="648.39" departLane="free" departSpeed="max" id="23622" type="HV">
		<route edges="genE316 genE297"/>
	</vehicle>
	<vehicle depart="661.81" departLane="free" departSpeed="max" id="23714" type="HV">
		<route edges="genE316 genE317"/>
	</vehicle>
	<vehicle depart="666.95" departLane="free" departSpeed="max" id="23429" type="HV">
		<route edges="genE296 genE307"/>
	</vehicle>
	<vehicle depart="672.62" departLane="free" departSpeed="max" id="23277" type="HV">
		<route edges="genE318 genE307"/>
	</vehicle>
	<vehicle depart="675.42" departLane="free" departSpeed="max" id="23695" type="CV">
		<route edges="genE316 genE317"/>
	</vehicle>
	<vehicle depart="675.76" departLane="free" departSpeed="max" id="23642" type="HV">
		<route edges="genE316 genE297"/>
	</vehicle>
	<vehicle depart="698.19" departLane="free" departSpeed="max" id="23285" type="HV">
		<route edges="genE318 genE307"/>
	</vehicle>
	<vehicle depart="698.86" departLane="free" departSpeed="max" id="23572" type="HV">
		<route edges="genE316 genE297"/>
	</vehicle>
	<vehicle depart="704.62" departLane="free" departSpeed="max" id="23425" type="HV">
		<route edges="genE296 genE307"/>
	</vehicle>
	<vehicle depart="712.16" departLane="free" departSpeed="max" id="23300" type="HV">
		<route edges="genE318 genE307"/>
	</vehicle>
	<vehicle depart="713.0" departLane="free" departSpeed="max" id="23571" type="CV">
		<route edges="genE316 genE297"/>
	</vehicle>
	<vehicle depart="719.39" departLane="free" departSpeed="max" id="23306" type="CV">
		<route edges="genE318 genE307"/>
	</vehicle>
	<vehicle depart="737.73" departLane="free" departSpeed="max" id="23461" type="CV">
		<route edges="genE296 genE317"/>
	</vehicle>
	<vehicle depart="743.49" departLane="free" departSpeed="max" id="23732" type="HV">
		<route edges="genE316 genE317"/>
	</vehicle>
	<vehicle depart="743.85" departLane="free" departSpeed="max" id="23367" type="HV">
		<route edges="genE296 genE307"/>
	</vehicle>
	<vehicle depart="744.97" departLane="free" departSpeed="max" id="23324" type="HV">
		<route edges="genE318 genE307"/>
	</vehicle>
	<vehicle depart="752.01" departLane="free" departSpeed="max" id="23682" type="HV">
		<route edges="genE316 genE317"/>
	</vehicle>
	<vehicle depart="765.87" departLane="free" departSpeed="max" id="23388" type="HV">
		<route edges="genE296 genE307"/>
	</vehicle>
	<vehicle depart="771.48" departLane="free" departSpeed="max" id="23654" type="HV">
		<route edges="genE316 genE297"/>
	</vehicle>
	<vehicle depart="774.05" departLane="free" departSpeed="max" id="23668" type="HV">
		<route edges="genE316 genE317"/>
	</vehicle>
	<vehicle depart="778.88" departLane="free" departSpeed="max" id="23692" type="HV">
		<route edges="genE316 genE317"/>
	</vehicle>
	<vehicle depart="785.6" departLane="free" departSpeed="max" id="23447" type="HV">
		<route edges="genE296 genE317"/>
	</vehicle>
	<vehicle depart="788.78" departLane="free" departSpeed="max" id="23721" type="HV">
		<route edges="genE316 genE317"/>
	</vehicle>
	<vehicle depart="789.93" departLane="free" departSpeed="max" id="23725" type="CV">
		<route edges="genE316 genE317"/>
	</vehicle>
	<vehicle depart="796.37" departLane="free" departSpeed="max" id="23736" type="CV">
		<route edges="genE316 genE317"/>
	</vehicle>
	<vehicle depart="800.84" departLane="free" departSpeed="max" id="23646" type="HV">
		<route edges="genE316 genE297"/>
	</vehicle>
	<vehicle depart="804.63" departLane="free" departSpeed="max" id="23499" type="HV">
		<route edges="genE296 genE317"/>
	</vehicle>
	<vehicle depart="810.16" departLane="free" departSpeed="max" id="23362" type="HV">
		<route edges="genE296 genE307"/>
	</vehicle>
	<vehicle depart="813.48" departLane="free" departSpeed="max" id="23486" type="HV">
		<route edges="genE296 genE317"/>
	</vehicle>
	<vehicle depart="819.79" departLane="free" departSpeed="max" id="23451" type="HV">
		<route edges="genE296 genE317"/>
	</vehicle>
	<vehicle depart="838.87" departLane="free" departSpeed="max" id="23264" type="HV">
		<route edges="genE318 genE297"/>
	</vehicle>
	<vehicle depart="840.0" departLane="free" departSpeed="max" id="23670" type="HV">
		<route edges="genE316 genE317"/>
	</vehicle>
	<vehicle depart="843.25" departLane="free" departSpeed="max" id="23518" type="HV">
		<route edges="genE296 genE317"/>
	</vehicle>
	<vehicle depart="847.39" departLane="free" departSpeed="max" id="23510" type="HV">
		<route edges="genE296 genE317"/>
	</vehicle>
	<vehicle depart="849.55" departLane="free" departSpeed="max" id="23314" type="CV">
		<route edges="genE318 genE307"/>
	</vehicle>
	<vehicle depart="856.05" departLane="free" departSpeed="max" id="23679" type="HV">
		<route edges="genE316 genE317"/>
	</vehicle>
	<vehicle depart="856.18" departLane="free" departSpeed="max" id="23548" type="CV">
		<route edges="genE316 genE297"/>
	</vehicle>
	<vehicle depart="861.35" departLane="free" departSpeed="max" id="23414" type="CV">
		<route edges="genE296 genE307"/>
	</vehicle>
	<vehicle depart="873.02" departLane="free" departSpeed="max" id="23228" type="HV">
		<route edges="genE318 genE297"/>
	</vehicle>
	<vehicle depart="875.9" departLane="free" departSpeed="max" id="23584" type="HV">
		<route edges="genE316 genE297"/>
	</vehicle>
	<vehicle depart="877.22" departLane="free" departSpeed="max" id="23663" type="HV">
		<route edges="genE316 genE317"/>
	</vehicle>
	<vehicle depart="878.07" departLane="free" departSpeed="max" id="23494" type="CV">
		<route edges="genE296 genE317"/>
	</vehicle>
	<vehicle depart="886.87" departLane="free" departSpeed="max" id="23556" type="HV">
		<route edges="genE316 genE297"/>
	</vehicle>
	<vehicle depart="892.14" departLane="free" departSpeed="max" id="23544" type="HV">
		<route edges="genE296 genE317"/>
	</vehicle>
	<vehicle depart="905.79" departLane="free" departSpeed="max" id="23498" type="HV">
		<route edges="genE296 genE317"/>
	</vehicle>
	<vehicle depart="921.84" departLane="free" departSpeed="max" id="23234" type="HV">
		<route edges="genE318 genE297"/>
	</vehicle>
	<vehicle depart="922.58" departLane="free" departSpeed="max" id="23391" type="CV">
		<route edges="genE296 genE307"/>
	</vehicle>
	<vehicle depart="933.74" departLane="free" departSpeed="max" id="23739" type="HV">
		<route edges="genE316 genE317"/>
	</vehicle>
	<vehicle depart="936.47" departLane="free" departSpeed="max" id="23478" type="HV">
		<route edges="genE296 genE317"/>
	</vehicle>
	<vehicle depart="946.88" departLane="free" departSpeed="max" id="23562" type="HV">
		<route edges="genE316 genE297"/>
	</vehicle>
	<vehicle depart="948.71" departLane="free" departSpeed="max" id="23250" type="HV">
		<route edges="genE318 genE297"/>
	</vehicle>
	<vehicle depart="954.0" departLane="free" departSpeed="max" id="23583" type="HV">
		<route edges="genE316 genE297"/>
	</vehicle>
	<vehicle depart="965.06" departLane="free" departSpeed="max" id="23254" type="HV">
		<route edges="genE318 genE297"/>
	</vehicle>
	<vehicle depart="984.86" departLane="free" departSpeed="max" id="23508" type="HV">
		<route edges="genE296 genE317"/>
	</vehicle>
	<vehicle depart="988.71" departLane="free" departSpeed="max" id="23549" type="HV">
		<route edges="genE316 genE297"/>
	</vehicle>
	<vehicle depart="988.72" departLane="free" departSpeed="max" id="23507" type="CV">
		<route edges="genE296 genE317"/>
	</vehicle>
	<vehicle depart="992.55" departLane="free" departSpeed="max" id="23452" type="HV">
		<route edges="genE296 genE317"/>
	</vehicle>
	<vehicle depart="995.52" departLane="free" departSpeed="max" id="23377" type="HV">
		<route edges="genE296 genE307"/>
	</vehicle>
	<vehicle depart="997.58" departLane="free" departSpeed="max" id="23647" type="HV">
		<route edges="genE316 genE297"/>
	</vehicle>
	<vehicle depart="1006.62" departLane="free" departSpeed="max" id="23406" type="CV">
		<route edges="genE296 genE307"/>
	</vehicle>
	<vehicle depart="1014.34" departLane="free" departSpeed="max" id="23370" type="HV">
		<route edges="genE296 genE307"/>
	</vehicle>
	<vehicle depart="1034.05" departLane="free" departSpeed="max" id="23536" type="HV">
		<route edges="genE296 genE317"/>
	</vehicle>
	<vehicle depart="1038.55" departLane="free" departSpeed="max" id="23656" type="HV">
		<route edges="genE316 genE317"/>
	</vehicle>
	<vehicle depart="1042.56" departLane="free" departSpeed="max" id="23723" type="HV">
		<route edges="genE316 genE317"/>
	</vehicle>
	<vehicle depart="1042.75" departLane="free" departSpeed="max" id="23640" type="HV">
		<route edges="genE316 genE297"/>
	</vehicle>
	<vehicle depart="1059.45" departLane="free" departSpeed="max" id="23226" type="HV">
		<route edges="genE318 genE297"/>
	</vehicle>
	<vehicle depart="1060.17" departLane="free" departSpeed="max" id="23325" type="HV">
		<route edges="genE318 genE307"/>
	</vehicle>
	<vehicle depart="1079.57" departLane="free" departSpeed="max" id="23504" type="CV">
		<route edges="genE296 genE317"/>
	</vehicle>
	<vehicle depart="1085.17" departLane="free" departSpeed="max" id="23407" type="HV">
		<route edges="genE296 genE307"/>
	</vehicle>
	<vehicle depart="1089.74" departLane="free" departSpeed="max" id="23428" type="HV">
		<route edges="genE296 genE307"/>
	</vehicle>
	<vehicle depart="1095.71" departLane="free" departSpeed="max" id="23718" type="CV">
		<route edges="genE316 genE317"/>
	</vehicle>
	<vehicle depart="1098.86" departLane="free" departSpeed="max" id="23305" type="CV">
		<route edges="genE318 genE307"/>
	</vehicle>
	<vehicle depart="1101.03" departLane="free" departSpeed="max" id="23258" type="HV">
		<route edges="genE318 genE297"/>
	</vehicle>
	<vehicle depart="1102.49" departLane="free" departSpeed="max" id="23419" type="HV">
		<route edges="genE296 genE307"/>
	</vehicle>
	<vehicle depart="1102.52" departLane="free" departSpeed="max" id="23469" type="HV">
		<route edges="genE296 genE317"/>
	</vehicle>
	<vehicle depart="1117.76" departLane="free" departSpeed="max" id="23738" type="HV">
		<route edges="genE316 genE317"/>
	</vehicle>
	<vehicle depart="1120.13" departLane="free" departSpeed="max" id="23664" type="CV">
		<route edges="genE316 genE317"/>
	</vehicle>
	<vehicle depart="1131.19" departLane="free" departSpeed="max" id="23551" type="HV">
		<route edges="genE316 genE297"/>
	</vehicle>
	<vehicle depart="1133.18" departLane="free" departSpeed="max" id="23301" type="CV">
		<route edges="genE318 genE307"/>
	</vehicle>
	<vehicle depart="1150.66" departLane="free" departSpeed="max" id="23373" type="HV">
		<route edges="genE296 genE307"/>
	</vehicle>
	<vehicle depart="1152.33" departLane="free" departSpeed="max" id="23288" type="HV">
		<route edges="genE318 genE307"/>
	</vehicle>
	<vehicle depart="1161.13" departLane="free" departSpeed="max" id="23455" type="HV">
		<route edges="genE296 genE317"/>
	</vehicle>
	<vehicle depart="1163.23" departLane="free" departSpeed="max" id="23383" type="CV">
		<route edges="genE296 genE307"/>
	</vehicle>
	<vehicle depart="1174.12" departLane="free" departSpeed="max" id="23613" type="HV">
		<route edges="genE316 genE297"/>
	</vehicle>
	<vehicle depart="1205.16" departLane="free" departSpeed="max" id="23591" type="CV">
		<route edges="genE316 genE297"/>
	</vehicle>
	<vehicle depart="1215.71" departLane="free" departSpeed="max" id="23471" type="CV">
		<route edges="genE296 genE317"/>
	</vehicle>
	<vehicle depart="1222.0" departLane="free" departSpeed="max" id="23608" type="HV">
		<route edges="genE316 genE297"/>
	</vehicle>
	<vehicle depart="1228.74" departLane="free" departSpeed="max" id="23358" type="HV">
		<route edges="genE296 genE307"/>
	</vehicle>
	<vehicle depart="1232.82" departLane="free" departSpeed="max" id="23472" type="HV">
		<route edges="genE296 genE317"/>
	</vehicle>
	<vehicle depart="1235.19" departLane="free" departSpeed="max" id="23528" type="CV">
		<route edges="genE296 genE317"/>
	</vehicle>
	<vehicle depart="1246.22" departLane="free" departSpeed="max" id="23689" type="HV">
		<route edges="genE316 genE317"/>
	</vehicle>
	<vehicle depart="1246.53" departLane="free" departSpeed="max" id="23432" type="CV">
		<route edges="genE296 genE307"/>
	</vehicle>
	<vehicle depart="1246.72" departLane="free" departSpeed="max" id="23426" type="CV">
		<route edges="genE296 genE307"/>
	</vehicle>
	<vehicle depart="1254.0" departLane="free" departSpeed="max" id="23558" type="HV">
		<route edges="genE316 genE297"/>
	</vehicle>
	<vehicle depart="1264.25" departLane="free" departSpeed="max" id="23348" type="HV">
		<route edges="genE296 genE307"/>
	</vehicle>
	<vehicle depart="1266.65" departLane="free" departSpeed="max" id="23436" type="HV">
		<route edges="genE296 genE307"/>
	</vehicle>
	<vehicle depart="1274.55" departLane="free" departSpeed="max" id="23320" type="HV">
		<route edges="genE318 genE307"/>
	</vehicle>
	<vehicle depart="1277.45" departLane="free" departSpeed="max" id="23481" type="HV">
		<route edges="genE296 genE317"/>
	</vehicle>
	<vehicle depart="1277.74" departLane="free" departSpeed="max" id="23307" type="CV">
		<route edges="genE318 genE307"/>
	</vehicle>
	<vehicle depart="1280.06" departLane="free" departSpeed="max" id="23298" type="HV">
		<route edges="genE318 genE307"/>
	</vehicle>
	<vehicle depart="1284.37" departLane="free" departSpeed="max" id="23423" type="HV">
		<route edges="genE296 genE307"/>
	</vehicle>
	<vehicle depart="1285.73" departLane="free" departSpeed="max" id="23343" type="HV">
		<route edges="genE296 genE307"/>
	</vehicle>
	<vehicle depart="1287.49" departLane="free" departSpeed="max" id="23515" type="HV">
		<route edges="genE296 genE317"/>
	</vehicle>
	<vehicle depart="1289.96" departLane="free" departSpeed="max" id="23603" type="HV">
		<route edges="genE316 genE297"/>
	</vehicle>
	<vehicle depart="1294.35" departLane="free" departSpeed="max" id="23323" type="CV">
		<route edges="genE318 genE307"/>
	</vehicle>
	<vehicle depart="1294.77" departLane="free" departSpeed="max" id="23392" type="HV">
		<route edges="genE296 genE307"/>
	</vehicle>
	<vehicle depart="1296.16" departLane="free" departSpeed="max" id="23660" type="HV">
		<route edges="genE316 genE317"/>
	</vehicle>
	<vehicle depart="1298.29" departLane="free" departSpeed="max" id="23542" type="HV">
		<route edges="genE296 genE317"/>
	</vehicle>
	<vehicle depart="1307.53" departLane="free" departSpeed="max" id="23724" type="HV">
		<route edges="genE316 genE317"/>
	</vehicle>
	<vehicle depart="1309.96" departLane="free" departSpeed="max" id="23726" type="CV">
		<route edges="genE316 genE317"/>
	</vehicle>
	<vehicle depart="1311.28" departLane="free" departSpeed="max" id="23229" type="CV">
		<route edges="genE318 genE297"/>
	</vehicle>
	<vehicle depart="1320.9" departLane="free" departSpeed="max" id="23626" type="CV">
		<route edges="genE316 genE297"/>
	</vehicle>
	<vehicle depart="1332.65" departLane="free" departSpeed="max" id="23707" type="HV">
		<route edges="genE316 genE317"/>
	</vehicle>
	<vehicle depart="1333.81" departLane="free" departSpeed="max" id="23643" type="HV">
		<route edges="genE316 genE297"/>
	</vehicle>
	<vehicle depart="1341.16" departLane="free" departSpeed="max" id="23500" type="CV">
		<route edges="genE296 genE317"/>
	</vehicle>
	<vehicle depart="1342.82" departLane="free" departSpeed="max" id="23666" type="CV">
		<route edges="genE316 genE317"/>
	</vehicle>
	<vehicle depart="1368.43" departLane="free" departSpeed="max" id="23537" type="HV">
		<route edges="genE296 genE317"/>
	</vehicle>
	<vehicle depart="1372.3" departLane="free" departSpeed="max" id="23712" type="CV">
		<route edges="genE316 genE317"/>
	</vehicle>
	<vehicle depart="1376.34" departLane="free" departSpeed="max" id="23374" type="HV">
		<route edges="genE296 genE307"/>
	</vehicle>
	<vehicle depart="1381.47" departLane="free" departSpeed="max" id="23274" type="HV">
		<route edges="genE318 genE307"/>
	</vehicle>
	<vehicle depart="1386.07" departLane="free" departSpeed="max" id="23351" type="CV">
		<route edges="genE296 genE307"/>
	</vehicle>
	<vehicle depart="1392.85" departLane="free" departSpeed="max" id="23740" type="CV">
		<route edges="genE316 genE317"/>
	</vehicle>
	<vehicle depart="1395.94" departLane="free" departSpeed="max" id="23564" type="HV">
		<route edges="genE316 genE297"/>
	</vehicle>
	<vehicle depart="1404.86" departLane="free" departSpeed="max" id="23565" type="HV">
		<route edges="genE316 genE297"/>
	</vehicle>
	<vehicle depart="1412.88" departLane="free" departSpeed="max" id="23379" type="HV">
		<route edges="genE296 genE307"/>
	</vehicle>
	<vehicle depart="1417.04" departLane="free" departSpeed="max" id="23378" type="HV">
		<route edges="genE296 genE307"/>
	</vehicle>
	<vehicle depart="1421.54" departLane="free" departSpeed="max" id="23259" type="HV">
		<route edges="genE318 genE297"/>
	</vehicle>
	<vehicle depart="1423.79" departLane="free" departSpeed="max" id="23239" type="HV">
		<route edges="genE318 genE297"/>
	</vehicle>
	<vehicle depart="1425.71" departLane="free" departSpeed="max" id="23289" type="HV">
		<route edges="genE318 genE307"/>
	</vehicle>
	<vehicle depart="1428.76" departLane="free" departSpeed="max" id="23546" type="HV">
		<route edges="genE296 genE317"/>
	</vehicle>
	<vehicle depart="1434.35" departLane="free" departSpeed="max" id="23292" type="HV">
		<route edges="genE318 genE307"/>
	</vehicle>
	<vehicle depart="1445.87" departLane="free" departSpeed="max" id="23303" type="HV">
		<route edges="genE318 genE307"/>
	</vehicle>
	<vehicle depart="1453.0" departLane="free" departSpeed="max" id="23460" type="HV">
		<route edges="genE296 genE317"/>
	</vehicle>
	<vehicle depart="1457.29" departLane="free" departSpeed="max" id="23550" type="HV">
		<route edges="genE316 genE297"/>
	</vehicle>
	<vehicle depart="1470.23" departLane="free" departSpeed="max" id="23730" type="HV">
		<route edges="genE316 genE317"/>
	</vehicle>
	<vehicle depart="1470.87" departLane="free" departSpeed="max" id="23446" type="HV">
		<route edges="genE296 genE317"/>
	</vehicle>
	<vehicle depart="1477.34" departLane="free" departSpeed="max" id="23433" type="HV">
		<route edges="genE296 genE307"/>
	</vehicle>
	<vehicle depart="1477.93" departLane="free" departSpeed="max" id="23316" type="HV">
		<route edges="genE318 genE307"/>
	</vehicle>
	<vehicle depart="1498.04" departLane="free" departSpeed="max" id="23405" type="HV">
		<route edges="genE296 genE307"/>
	</vehicle>