<?xml version="1.0" ?>
<routes>
	<vType accel="0.8" decel="4.5" id="CV" length="5" maxSpeed="45" sigma="0.5"/>
	<vType accel="0.8" decel="4.5" id="HV" length="5" maxSpeed="40" sigma="0.5"/>
	<vehicle depart="1.33" departLane="free" departSpeed="max" id="16974" type="CV">
		<route edges="genE318 genE307"/>
	</vehicle>
	<vehicle depart="1.41" departLane="free" departSpeed="max" id="17231" type="HV">
		<route edges="genE296 genE307"/>
	</vehicle>
	<vehicle depart="2.75" departLane="free" departSpeed="max" id="17721" type="HV">
		<route edges="genE316 genE297"/>
	</vehicle>
	<vehicle depart="3.96" departLane="free" departSpeed="max" id="17931" type="HV">
		<route edges="genE316 genE317"/>
	</vehicle>
	<vehicle depart="4.88" departLane="free" departSpeed="max" id="17688" type="HV">
		<route edges="genE316 genE297"/>
	</vehicle>
	<vehicle depart="11.09" departLane="free" departSpeed="max" id="17431" type="HV">
		<route edges="genE296 genE317"/>
	</vehicle>
	<vehicle depart="19.37" departLane="free" departSpeed="max" id="17698" type="HV">
		<route edges="genE316 genE297"/>
	</vehicle>
	<vehicle depart="24.39" departLane="free" departSpeed="max" id="17602" type="HV">
		<route edges="genE316 genE297"/>
	</vehicle>
	<vehicle depart="29.01" departLane="free" departSpeed="max" id="17749" type="HV">
		<route edges="genE316 genE297"/>
	</vehicle>
	<vehicle depart="31.55" departLane="free" departSpeed="max" id="16986" type="HV">
		<route edges="genE318 genE307"/>
	</vehicle>
	<vehicle depart="33.87" departLane="free" departSpeed="max" id="16846" type="HV">
		<route edges="genE318 genE297"/>
	</vehicle>
	<vehicle depart="37.33" departLane="free" departSpeed="max" id="17593" type="CV">
		<route edges="genE316 genE297"/>
	</vehicle>
	<vehicle depart="46.73" departLane="free" departSpeed="max" id="18020" type="HV">
		<route edges="genE316 genE317"/>
	</vehicle>
	<vehicle depart="49.44" departLane="free" departSpeed="max" id="16949" type="HV">
		<route edges="genE318 genE307"/>
	</vehicle>
	<vehicle depart="50.0" departLane="free" departSpeed="max" id="17296" type="HV">
		<route edges="genE296 genE307"/>
	</vehicle>
	<vehicle depart="50.41" departLane="free" departSpeed="max" id="17076" type="CV">
		<route edges="genE296 genE307"/>
	</vehicle>
	<vehicle depart="50.83" departLane="free" departSpeed="max" id="17693" type="HV">
		<route edges="genE316 genE297"/>
	</vehicle>
	<vehicle depart="59.21" departLane="free" departSpeed="max" id="17767" type="CV">
		<route edges="genE316 genE297"/>
	</vehicle>
	<vehicle depart="59.55" departLane="free" departSpeed="max" id="17709" type="CV">
		<route edges="genE316 genE297"/>
	</vehicle>
	<vehicle depart="62.36" departLane="free" departSpeed="max" id="17883" type="HV">
		<route edges="genE316 genE317"/>
	</vehicle>
	<vehicle depart="63.32" departLane="free" departSpeed="max" id="17314" type="HV">
		<route edges="genE296 genE317"/>
	</vehicle>
	<vehicle depart="67.35" departLane="free" departSpeed="max" id="17779" type="HV">
		<route edges="genE316 genE297"/>
	</vehicle>
	<vehicle depart="74.79" departLane="free" departSpeed="max" id="17479" type="HV">
		<route edges="genE296 genE317"/>
	</vehicle>
	<vehicle depart="75.62" departLane="free" departSpeed="max" id="17858" type="HV">
		<route edges="genE316 genE317"/>
	</vehicle>
	<vehicle depart="77.58" departLane="free" departSpeed="max" id="18055" type="HV">
		<route edges="genE316 genE317"/>
	</vehicle>
	<vehicle depart="78.86" departLane="free" departSpeed="max" id="17610" type="HV">
		<route edges="genE316 genE297"/>
	</vehicle>
	<vehicle depart="80.37" departLane="free" departSpeed="max" id="16968" type="HV">
		<route edges="genE318 genE307"/>
	</vehicle>
	<vehicle depart="82.46" departLane="free" departSpeed="max" id="17423" type="HV">
		<route edges="genE296 genE317"/>
	</vehicle>
	<vehicle depart="86.9" departLane="free" departSpeed="max" id="17785" type="HV">
		<route edges="genE316 genE297"/>
	</vehicle>
	<vehicle depart="90.75" departLane="free" departSpeed="max" id="17544" type="HV">
		<route edges="genE296 genE317"/>
	</vehicle>
	<vehicle depart="93.54" departLane="free" departSpeed="max" id="17242" type="HV">
		<route edges="genE296 genE307"/>
	</vehicle>
	<vehicle depart="97.81" departLane="free" departSpeed="max" id="17177" type="HV">
		<route edges="genE296 genE307"/>
	</vehicle>
	<vehicle depart="99.06" departLane="free" departSpeed="max" id="16829" type="HV">
		<route edges="genE318 genE297"/>
	</vehicle>
	<vehicle depart="100.43" departLane="free" departSpeed="max" id="17470" type="HV">
		<route edges="genE296 genE317"/>
	</vehicle>
	<vehicle depart="100.47" departLane="free" departSpeed="max" id="17070" type="HV">
		<route edges="genE318 genE307"/>
	</vehicle>
	<vehicle depart="101.19" departLane="free" departSpeed="max" id="17374" type="HV">
		<route edges="genE296 genE317"/>
	</vehicle>
	<vehicle depart="101.91" departLane="free" departSpeed="max" id="17640" type="CV">
		<route edges="genE316 genE297"/>
	</vehicle>
	<vehicle depart="104.91" departLane="free" departSpeed="max" id="16940" type="HV">
		<route edges="genE318 genE307"/>
	</vehicle>
	<vehicle depart="110.31" departLane="free" departSpeed="max" id="17261" type="HV">
		<route edges="genE296 genE307"/>
	</vehicle>
	<vehicle depart="110.43" departLane="free" departSpeed="max" id="17800" type="CV">
		<route edges="genE316 genE297"/>
	</vehicle>
	<vehicle depart="111.39" departLane="free" departSpeed="max" id="17354" type="HV">
		<route edges="genE296 genE317"/>
	</vehicle>
	<vehicle depart="113.33" departLane="free" departSpeed="max" id="17179" type="HV">
		<route edges="genE296 genE307"/>
	</vehicle>
	<vehicle depart="113.76" departLane="free" departSpeed="max" id="17621" type="HV">
		<route edges="genE316 genE297"/>
	</vehicle>
	<vehicle depart="116.47" departLane="free" departSpeed="max" id="17917" type="HV">
		<route edges="genE316 genE317"/>
	</vehicle>
	<vehicle depart="117.78" departLane="free" departSpeed="max" id="17409" type="HV">
		<route edges="genE296 genE317"/>
	</vehicle>
	<vehicle depart="122.19" departLane="free" departSpeed="max" id="17286" type="CV">
		<route edges="genE296 genE307"/>
	</vehicle>
	<vehicle depart="123.87" departLane="free" departSpeed="max" id="17892" type="HV">
		<route edges="genE316 genE317"/>
	</vehicle>
	<vehicle depart="126.72" departLane="free" departSpeed="max" id="17708" type="HV">
		<route edges="genE316 genE297"/>
	</vehicle>
	<vehicle depart="126.8" departLane="free" departSpeed="max" id="17997" type="HV">
		<route edges="genE316 genE317"/>
	</vehicle>
	<vehicle depart="130.93" departLane="free" departSpeed="max" id="17233" type="HV">
		<route edges="genE296 genE307"/>
	</vehicle>
	<vehicle depart="132.62" departLane="free" departSpeed="max" id="17565" type="HV">
		<route edges="genE296 genE317"/>
	</vehicle>
	<vehicle depart="134.9" departLane="free" departSpeed="max" id="17662" type="CV">
		<route edges="genE316 genE297"/>
	</vehicle>
	<vehicle depart="143.31" departLane="free" departSpeed="max" id="17139" type="HV">
		<route edges="genE296 genE307"/>
	</vehicle>
	<vehicle depart="147.12" departLane="free" departSpeed="max" id="17162" type="HV">
		<route edges="genE296 genE307"/>
	</vehicle>
	<vehicle depart="150.74" departLane="free" departSpeed="max" id="18061" type="HV">
		<route edges="genE316 genE317"/>
	</vehicle>
	<vehicle depart="150.97" departLane="free" departSpeed="max" id="17066" type="CV">
		<route edges="genE318 genE307"/>
	</vehicle>
	<vehicle depart="152.41" departLane="free" departSpeed="max" id="18039" type="HV">
		<route edges="genE316 genE317"/>
	</vehicle>
	<vehicle depart="154.03" departLane="free" departSpeed="max" id="18059" type="HV">
		<route edges="genE316 genE317"/>
	</vehicle>
	<vehicle depart="156.34" departLane="free" departSpeed="max" id="17973" type="HV">
		<route edges="genE316 genE317"/>
	</vehicle>
	<vehicle depart="157.04" departLane="free" departSpeed="max" id="16916" type="HV">
		<route edges="genE318 genE307"/>
	</vehicle>
	<vehicle depart="159.2" departLane="free" departSpeed="max" id="17248" type="CV">
		<route edges="genE296 genE307"/>
	</vehicle>
	<vehicle depart="162.97" departLane="free" departSpeed="max" id="17834" type="HV">
		<route edges="genE316 genE297"/>
	</vehicle>
	<vehicle depart="166.34" departLane="free" departSpeed="max" id="17117" type="HV">
		<route edges="genE296 genE307"/>
	</vehicle>
	<vehicle depart="172.73" departLane="free" departSpeed="max" id="17389" type="HV">
		<route edges="genE296 genE317"/>
	</vehicle>
	<vehicle depart="175.59" departLane="free" departSpeed="max" id="17838" type="CV">
		<route edges="genE316 genE297"/>
	</vehicle>
	<vehicle depart="181.29" departLane="free" departSpeed="max" id="17745" type="HV">
		<route edges="genE316 genE297"/>
	</vehicle>
	<vehicle depart="181.91" departLane="free" departSpeed="max" id="17729" type="CV">
		<route edges="genE316 genE297"/>
	</vehicle>
	<vehicle depart="193.4" departLane="free" departSpeed="max" id="17878" type="CV">
		<route edges="genE316 genE317"/>
	</vehicle>
	<vehicle depart="195.05" departLane="free" departSpeed="max" id="16785" type="HV">
		<route edges="genE318 genE297"/>
	</vehicle>
	<vehicle depart="198.46" departLane="free" departSpeed="max" id="17591" type="HV">
		<route edges="genE316 genE297"/>
	</vehicle>
	<vehicle depart="201.05" departLane="free" departSpeed="max" id="16854" type="HV">
		<route edges="genE318 genE297"/>
	</vehicle>
	<vehicle depart="204.71" departLane="free" departSpeed="max" id="17885" type="HV">
		<route edges="genE316 genE317"/>
	</vehicle>
	<vehicle depart="205.14" departLane="free" departSpeed="max" id="17413" type="CV">
		<route edges="genE296 genE317"/>
	</vehicle>
	<vehicle depart="205.43" departLane="free" departSpeed="max" id="17477" type="HV">
		<route edges="genE296 genE317"/>
	</vehicle>
	<vehicle depart="209.83" departLane="free" departSpeed="max" id="16987" type="CV">
		<route edges="genE318 genE307"/>
	</vehicle>
	<vehicle depart="213.98" departLane="free" departSpeed="max" id="17446" type="HV">
		<route edges="genE296 genE317"/>
	</vehicle>
	<vehicle depart="215.0" departLane="free" departSpeed="max" id="16906" type="HV">
		<route edges="genE318 genE307"/>
	</vehicle>
	<vehicle depart="218.59" departLane="free" departSpeed="max" id="16894" type="CV">
		<route edges="genE318 genE307"/>
	</vehicle>
	<vehicle depart="220.78" departLane="free" departSpeed="max" id="17028" type="HV">
		<route edges="genE318 genE307"/>
	</vehicle>
	<vehicle depart="221.75" departLane="free" departSpeed="max" id="17141" type="HV">
		<route edges="genE296 genE307"/>
	</vehicle>
	<vehicle depart="223.26" departLane="free" departSpeed="max" id="17394" type="HV">
		<route edges="genE296 genE317"/>
	</vehicle>
	<vehicle depart="223.49" departLane="free" departSpeed="max" id="17754" type="HV">
		<route edges="genE316 genE297"/>
	</vehicle>
	<vehicle depart="228.38" departLane="free" departSpeed="max" id="16903" type="HV">
		<route edges="genE318 genE307"/>
	</vehicle>
	<vehicle depart="229.61" departLane="free" departSpeed="max" id="17756" type="HV">
		<route edges="genE316 genE297"/>
	</vehicle>
	<vehicle depart="230.75" departLane="free" departSpeed="max" id="17404" type="CV">
		<route edges="genE296 genE317"/>
	</vehicle>
	<vehicle depart="230.89" departLane="free" departSpeed="max" id="16880" type="HV">
		<route edges="genE318 genE297"/>
	</vehicle>
	<vehicle depart="231.38" departLane="free" departSpeed="max" id="17173" type="HV">
		<route edges="genE296 genE307"/>
	</vehicle>
	<vehicle depart="233.25" departLane="free" departSpeed="max" id="17769" type="HV">
		<route edges="genE316 genE297"/>
	</vehicle>
	<vehicle depart="233.89" departLane="free" departSpeed="max" id="17250" type="CV">
		<route edges="genE296 genE307"/>
	</vehicle>
	<vehicle depart="236.67" departLane="free" departSpeed="max" id="17560" type="HV">
		<route edges="genE296 genE317"/>
	</vehicle>
	<vehicle depart="237.28" departLane="free" departSpeed="max" id="18063" type="HV">
		<route edges="genE316 genE317"/>
	</vehicle>
	<vehicle depart="240.01" departLane="free" departSpeed="max" id="16835" type="HV">
		<route edges="genE318 genE297"/>
	</vehicle>
	<vehicle depart="241.02" departLane="free" departSpeed="max" id="17294" type="HV">
		<route edges="genE296 genE307"/>
	</vehicle>
	<vehicle depart="246.07" departLane="free" departSpeed="max" id="17478" type="HV">
		<route edges="genE296 genE317"/>
	</vehicle>
	<vehicle depart="246.83" departLane="free" departSpeed="max" id="17067" type="HV">
		<route edges="genE318 genE307"/>
	</vehicle>
	<vehicle depart="250.52" departLane="free" departSpeed="max" id="17029" type="HV">
		<route edges="genE318 genE307"/>
	</vehicle>
	<vehicle depart="254.32" departLane="free" departSpeed="max" id="17960" type="CV">
		<route edges="genE316 genE317"/>
	</vehicle>
	<vehicle depart="256.28" departLane="free" departSpeed="max" id="17176" type="HV">
		<route edges="genE296 genE307"/>
	</vehicle>
	<vehicle depart="256.65" departLane="free" departSpeed="max" id="17668" type="HV">
		<route edges="genE316 genE297"/>
	</vehicle>
	<vehicle depart="259.56" departLane="free" departSpeed="max" id="17098" type="HV">
		<route edges="genE296 genE307"/>
	</vehicle>
	<vehicle depart="264.5" departLane="free" departSpeed="max" id="17898" type="HV">
		<route edges="genE316 genE317"/>
	</vehicle>
	<vehicle depart="265.25" departLane="free" departSpeed="max" id="17273" type="HV">
		<route edges="genE296 genE307"/>
	</vehicle>
	<vehicle depart="269.25" departLane="free" departSpeed="max" id="17276" type="HV">
		<route edges="genE296 genE307"/>
	</vehicle>
	<vehicle depart="274.31" departLane="free" departSpeed="max" id="17735" type="HV">
		<route edges="genE316 genE297"/>
	</vehicle>
	<vehicle depart="277.55" departLane="free" departSpeed="max" id="17724" type="HV">
		<route edges="genE316 genE297"/>
	</vehicle>
	<vehicle depart="277.79" departLane="free" departSpeed="max" id="17476" type="HV">
		<route edges="genE296 genE317"/>
	</vehicle>
	<vehicle depart="278.31" departLane="free" departSpeed="max" id="17108" type="HV">
		<route edges="genE296 genE307"/>
	</vehicle>
	<vehicle depart="278.7" departLane="free" departSpeed="max" id="17346" type="HV">
		<route edges="genE296 genE317"/>
	</vehicle>
	<vehicle depart="279.41" departLane="free" departSpeed="max" id="17527" type="HV">
		<route edges="genE296 genE317"/>
	</vehicle>
	<vehicle depart="283.03" departLane="free" departSpeed="max" id="17669" type="CV">
		<route edges="genE316 genE297"/>
	</vehicle>
	<vehicle depart="294.47" departLane="free" departSpeed="max" id="16892" type="HV">
		<route edges="genE318 genE307"/>
	</vehicle>
	<vehicle depart="296.43" departLane="free" departSpeed="max" id="17504" type="CV">
		<route edges="genE296 genE317"/>
	</vehicle>
	<vehicle depart="298.36" departLane="free" departSpeed="max" id="17371" type="HV">
		<route edges="genE296 genE317"/>
	</vehicle>
	<vehicle depart="298.38" departLane="free" departSpeed="max" id="17909" type="HV">
		<route edges="genE316 genE317"/>
	</vehicle>
	<vehicle depart="298.89" departLane="free" departSpeed="max" id="17842" type="CV">
		<route edges="genE316 genE297"/>
	</vehicle>
	<vehicle depart="301.75" departLane="free" departSpeed="max" id="17490" type="HV">
		<route edges="genE296 genE317"/>
	</vehicle>
	<vehicle depart="303.14" departLane="free" departSpeed="max" id="17147" type="HV">
		<route edges="genE296 genE307"/>
	</vehicle>
	<vehicle depart="306.03" departLane="free" departSpeed="max" id="17509" type="HV">
		<route edges="genE296 genE317"/>
	</vehicle>
	<vehicle depart="311.98" departLane="free" departSpeed="max" id="17642" type="HV">
		<route edges="genE316 genE297"/>
	</vehicle>
	<vehicle depart="316.14" departLane="free" departSpeed="max" id="16984" type="HV">
		<route edges="genE318 genE307"/>
	</vehicle>
	<vehicle depart="316.25" departLane="free" departSpeed="max" id="17866" type="HV">
		<route edges="genE316 genE317"/>
	</vehicle>
	<vehicle depart="317.71" departLane="free" departSpeed="max" id="16859" type="HV">
		<route edges="genE318 genE297"/>
	</vehicle>
	<vehicle depart="321.79" departLane="free" departSpeed="max" id="17531" type="HV">
		<route edges="genE296 genE317"/>
	</vehicle>
	<vehicle depart="322.21" departLane="free" departSpeed="max" id="17650" type="HV">
		<route edges="genE316 genE297"/>
	</vehicle>
	<vehicle depart="327.09" departLane="free" departSpeed="max" id="16800" type="CV">
		<route edges="genE318 genE297"/>
	</vehicle>
	<vehicle depart="329.67" departLane="free" departSpeed="max" id="17868" type="HV">
		<route edges="genE316 genE317"/>
	</vehicle>
	<vehicle depart="329.87" departLane="free" departSpeed="max" id="16796" type="HV">
		<route edges="genE318 genE297"/>
	</vehicle>
	<vehicle depart="330.27" departLane="free" departSpeed="max" id="16985" type="HV">
		<route edges="genE318 genE307"/>
	</vehicle>
	<vehicle depart="332.32" departLane="free" departSpeed="max" id="17194" type="CV">
		<route edges="genE296 genE307"/>
	</vehicle>
	<vehicle depart="333.7" departLane="free" departSpeed="max" id="16786" type="HV">
		<route edges="genE318 genE297"/>
	</vehicle>
	<vehicle depart="333.93" departLane="free" departSpeed="max" id="17456" type="HV">
		<route edges="genE296 genE317"/>
	</vehicle>
	<vehicle depart="337.44" departLane="free" departSpeed="max" id="18035" type="HV">
		<route edges="genE316 genE317"/>
	</vehicle>
	<vehicle depart="339.44" departLane="free" departSpeed="max" id="16923" type="HV">
		<route edges="genE318 genE307"/>
	</vehicle>
	<vehicle depart="340.13" departLane="free" departSpeed="max" id="16918" type="HV">
		<route edges="genE318 genE307"/>
	</vehicle>
	<vehicle depart="341.59" departLane="free" departSpeed="max" id="18015" type="HV">
		<route edges="genE316 genE317"/>
	</vehicle>
	<vehicle depart="346.76" departLane="free" departSpeed="max" id="18057" type="HV">
		<route edges="genE316 genE317"/>
	</vehicle>
	<vehicle depart="346.95" departLane="free" departSpeed="max" id="17545" type="HV">
		<route edges="genE296 genE317"/>
	</vehicle>
	<vehicle depart="348.21" departLane="free" departSpeed="max" id="17437" type="HV">
		<route edges="genE296 genE317"/>
	</vehicle>
	<vehicle depart="350.86" departLane="free" departSpeed="max" id="17163" type="HV">
		<route edges="genE296 genE307"/>
	</vehicle>
	<vehicle depart="352.7" departLane="free" departSpeed="max" id="17507" type="CV">
		<route edges="genE296 genE317"/>
	</vehicle>
	<vehicle depart="355.04" departLane="free" departSpeed="max" id="17279" type="HV">
		<route edges="genE296 genE307"/>
	</vehicle>
	<vehicle depart="362.93" departLane="free" departSpeed="max" id="17480" type="HV">
		<route edges="genE296 genE317"/>
	</vehicle>
	<vehicle depart="363.9" departLane="free" departSpeed="max" id="17532" type="CV">
		<route edges="genE296 genE317"/>
	</vehicle>
	<vehicle depart="364.35" departLane="free" departSpeed="max" id="17020" type="HV">
		<route edges="genE318 genE307"/>
	</vehicle>
	<vehicle depart="364.82" departLane="free" departSpeed="max" id="16844" type="HV">
		<route edges="genE318 genE297"/>
	</vehicle>
	<vehicle depart="365.3" departLane="free" departSpeed="max" id="17136" type="CV">
		<route edges="genE296 genE307"/>
	</vehicle>
	<vehicle depart="366.03" departLane="free" departSpeed="max" id="17269" type="HV">
		<route edges="genE296 genE307"/>
	</vehicle>
	<vehicle depart="366.37" departLane="free" departSpeed="max" id="16907" type="CV">
		<route edges="genE318 genE307"/>
	</vehicle>
	<vehicle depart="367.77" departLane="free" departSpeed="max" id="17614" type="HV">
		<route edges="genE316 genE297"/>
	</vehicle>
	<vehicle depart="377.86" departLane="free" departSpeed="max" id="17454" type="CV">
		<route edges="genE296 genE317"/>
	</vehicle>
	<vehicle depart="380.32" departLane="free" departSpeed="max" id="17050" type="HV">
		<route edges="genE318 genE307"/>
	</vehicle>
	<vehicle depart="380.76" departLane="free" departSpeed="max" id="18005" type="HV">
		<route edges="genE316 genE317"/>
	</vehicle>
	<vehicle depart="382.07" departLane="free" departSpeed="max" id="17914" type="HV">
		<route edges="genE316 genE317"/>
	</vehicle>
	<vehicle depart="382.12" departLane="free" departSpeed="max" id="18048" type="HV">
		<route edges="genE316 genE317"/>
	</vehicle>
	<vehicle depart="385.43" departLane="free" departSpeed="max" id="17022" type="HV">
		<route edges="genE318 genE307"/>
	</vehicle>
	<vehicle depart="385.46" departLane="free" departSpeed="max" id="17412" type="HV">
		<route edges="genE296 genE317"/>
	</vehicle>
	<vehicle depart="388.38" departLane="free" departSpeed="max" id="17239" type="HV">
		<route edges="genE296 genE307"/>
	</vehicle>
	<vehicle depart="388.53" departLane="free" departSpeed="max" id="17500" type="HV">
		<route edges="genE296 genE317"/>
	</vehicle>
	<vehicle depart="388.99" departLane="free" departSpeed="max" id="17550" type="HV">
		<route edges="genE296 genE317"/>
	</vehicle>
	<vehicle depart="392.56" departLane="free" departSpeed="max" id="17887" type="HV">
		<route edges="genE316 genE317"/>
	</vehicle>
	<vehicle depart="393.41" departLane="free" departSpeed="max" id="17290" type="CV">
		<route edges="genE296 genE307"/>
	</vehicle>
	<vehicle depart="397.91" departLane="free" departSpeed="max" id="17948" type="HV">
		<route edges="genE316 genE317"/>
	</vehicle>
	<vehicle depart="404.41" departLane="free" departSpeed="max" id="17062" type="CV">
		<route edges="genE318 genE307"/>
	</vehicle>
	<vehicle depart="404.93" departLane="free" departSpeed="max" id="18046" type="CV">
		<route edges="genE316 genE317"/>
	</vehicle>
	<vehicle depart="405.59" departLane="free" departSpeed="max" id="17597" type="CV">
		<route edges="genE316 genE297"/>
	</vehicle>
	<vehicle depart="406.14" departLane="free" departSpeed="max" id="17125" type="HV">
		<route edges="genE296 genE307"/>
	</vehicle>
	<vehicle depart="406.42" departLane="free" departSpeed="max" id="17775" type="HV">
		<route edges="genE316 genE297"/>
	</vehicle>
	<vehicle depart="409.4" departLane="free" departSpeed="max" id="17607" type="HV">
		<route edges="genE316 genE297"/>
	</vehicle>
	<vehicle depart="411.61" departLane="free" departSpeed="max" id="17148" type="HV">
		<route edges="genE296 genE307"/>
	</vehicle>
	<vehicle depart="413.11" departLane="free" departSpeed="max" id="17361" type="HV">
		<route edges="genE296 genE317"/>
	</vehicle>
	<vehicle depart="414.28" departLane="free" departSpeed="max" id="17554" type="HV">
		<route edges="genE296 genE317"/>
	</vehicle>
	<vehicle depart="415.22" departLane="free" departSpeed="max" id="17027" type="HV">
		<route edges="genE318 genE307"/>
	</vehicle>
	<vehicle depart="415.93" departLane="free" departSpeed="max" id="17272" type="HV">
		<route edges="genE296 genE307"/>
	</vehicle>
	<vehicle depart="416.72" departLane="free" departSpeed="max" id="17491" type="CV">
		<route edges="genE296 genE317"/>
	</vehicle>
	<vehicle depart="418.72" departLane="free" departSpeed="max" id="17493" type="HV">
		<route edges="genE296 genE317"/>
	</vehicle>
	<vehicle depart="420.76" departLane="free" departSpeed="max" id="17823" type="HV">
		<route edges="genE316 genE297"/>
	</vehicle>
	<vehicle depart="425.13" departLane="free" departSpeed="max" id="16902" type="CV">
		<route edges="genE318 genE307"/>
	</vehicle>
	<vehicle depart="426.04" departLane="free" departSpeed="max" id="17776" type="HV">
		<route edges="genE316 genE297"/>
	</vehicle>
	<vehicle depart="426.45" departLane="free" departSpeed="max" id="17623" type="HV">
		<route edges="genE316 genE297"/>
	</vehicle>
	<vehicle depart="426.94" departLane="free" departSpeed="max" id="17503" type="HV">
		<route edges="genE296 genE317"/>
	</vehicle>
	<vehicle depart="427.14" departLane="free" departSpeed="max" id="17037" type="HV">
		<route edges="genE318 genE307"/>
	</vehicle>
	<vehicle depart="427.48" departLane="free" departSpeed="max" id="17058" type="HV">
		<route edges="genE318 genE307"/>
	</vehicle>
	<vehicle depart="430.0" departLane="free" departSpeed="max" id="17599" type="HV">
		<route edges="genE316 genE297"/>
	</vehicle>
	<vehicle depart="430.08" departLane="free" departSpeed="max" id="17175" type="HV">
		<route edges="genE296 genE307"/>
	</vehicle>
	<vehicle depart="430.89" departLane="free" departSpeed="max" id="17237" type="HV">
		<route edges="genE296 genE307"/>
	</vehicle>
	<vehicle depart="439.35" departLane="free" departSpeed="max" id="16887" type="HV">
		<route edges="genE318 genE307"/>
	</vehicle>
	<vehicle depart="441.03" departLane="free" departSpeed="max" id="17329" type="HV">
		<route edges="genE296 genE317"/>
	</vehicle>
	<vehicle depart="441.04" departLane="free" departSpeed="max" id="17796" type="HV">
		<route edges="genE316 genE297"/>
	</vehicle>
	<vehicle depart="442.78" departLane="free" departSpeed="max" id="17344" type="CV">
		<route edges="genE296 genE317"/>
	</vehicle>
	<vehicle depart="446.58" departLane="free" departSpeed="max" id="17651" type="HV">
		<route edges="genE316 genE297"/>
	</vehicle>
	<vehicle depart="446.93" departLane="free" departSpeed="max" id="17292" type="HV">
		<route edges="genE296 genE307"/>
	</vehicle>
	<vehicle depart="448.36" departLane="free" departSpeed="max" id="17584" type="CV">
		<route edges="genE316 genE297"/>
	</vehicle>
	<vehicle depart="450.58" departLane="free" departSpeed="max" id="17707" type="HV">
		<route edges="genE316 genE297"/>
	</vehicle>
	<vehicle depart="451.85" departLane="free" departSpeed="max" id="17124" type="HV">
		<route edges="genE296 genE307"/>
	</vehicle>
	<vehicle depart="453.71" departLane="free" departSpeed="max" id="17364" type="CV">
		<route edges="genE296 genE317"/>
	</vehicle>
	<vehicle depart="459.92" departLane="free" departSpeed="max" id="17277" type="HV">
		<route edges="genE296 genE307"/>
	</vehicle>
	<vehicle depart="461.23" departLane="free" departSpeed="max" id="17353" type="CV">
		<route edges="genE296 genE317"/>
	</vehicle>
	<vehicle depart="461.48" departLane="free" departSpeed="max" id="17246" type="HV">
		<route edges="genE296 genE307"/>
	</vehicle>
	<vehicle depart="462.65" departLane="free" departSpeed="max" id="17907" type="HV">
		<route edges="genE316 genE317"/>
	</vehicle>
	<vehicle depart="472.24" departLane="free" departSpeed="max" id="17092" type="HV">
		<route edges="genE296 genE307"/>
	</vehicle>
	<vehicle depart="474.64" departLane="free" departSpeed="max" id="17274" type="HV">
		<route edges="genE296 genE307"/>
	</vehicle>
	<vehicle depart="479.7" departLane="free" departSpeed="max" id="17828" type="CV">
		<route edges="genE316 genE297"/>
	</vehicle>
	<vehicle depart="480.67" departLane="free" departSpeed="max" id="17884" type="HV">
		<route edges="genE316 genE317"/>
	</vehicle>
	<vehicle depart="481.15" departLane="free" departSpeed="max" id="17227" type="HV">
		<route edges="genE296 genE307"/>
	</vehicle>
	<vehicle depart="482.12" departLane="free" departSpeed="max" id="17266" type="HV">
		<route edges="genE296 genE307"/>
	</vehicle>
	<vehicle depart="483.32" departLane="free" departSpeed="max" id="17369" type="HV">
		<route edges="genE296 genE317"/>
	</vehicle>
	<vehicle depart="485.7" departLane="free" departSpeed="max" id="17647" type="HV">
		<route edges="genE316 genE297"/>
	</vehicle>
	<vehicle depart="487.22" departLane="free" departSpeed="max" id="17334" type="HV">
		<route edges="genE296 genE317"/>
	</vehicle>
	<vehicle depart="488.41" departLane="free" departSpeed="max" id="17942" type="HV">
		<route edges="genE316 genE317"/>
	</vehicle>
	<vehicle depart="493.0" departLane="free" departSpeed="max" id="17949" type="HV">
		<route edges="genE316 genE317"/>
	</vehicle>
	<vehicle depart="493.59" departLane="free" departSpeed="max" id="17840" type="HV">
		<route edges="genE316 genE297"/>
	</vehicle>
	<vehicle depart="494.0" departLane="free" departSpeed="max" id="17552" type="CV">
		<route edges="genE296 genE317"/>
	</vehicle>
	<vehicle depart="494.13" departLane="free" departSpeed="max" id="16970" type="HV">
		<route edges="genE318 genE307"/>
	</vehicle>
	<vehicle depart="495.6" departLane="free" departSpeed="max" id="17847" type="HV">
		<route edges="genE316 genE297"/>
	</vehicle>
	<vehicle depart="496.92" departLane="free" departSpeed="max" id="17367" type="HV">
		<route edges="genE296 genE317"/>
	</vehicle>
	<vehicle depart="498.88" departLane="free" departSpeed="max" id="17913" type="HV">
		<route edges="genE316 genE317"/>
	</vehicle>
	<vehicle depart="499.57" departLane="free" departSpeed="max" id="17138" type="CV">
		<route edges="genE296 genE307"/>
	</vehicle>
	<vehicle depart="502.05" departLane="free" departSpeed="max" id="16863" type="HV">
		<route edges="genE318 genE297"/>
	</vehicle>
	<vehicle depart="513.49" departLane="free" departSpeed="max" id="17558" type="HV">
		<route edges="genE296 genE317"/>
	</vehicle>
	<vehicle depart="517.46" departLane="free" departSpeed="max" id="17455" type="HV">
		<route edges="genE296 genE317"/>
	</vehicle>
	<vehicle depart="520.63" departLane="free" departSpeed="max" id="18004" type="CV">
		<route edges="genE316 genE317"/>
	</vehicle>
	<vehicle depart="523.02" departLane="free" departSpeed="max" id="16855" type="HV">
		<route edges="genE318 genE297"/>
	</vehicle>
	<vehicle depart="536.95" departLane="free" departSpeed="max" id="17863" type="HV">
		<route edges="genE316 genE317"/>
	</vehicle>
	<vehicle depart="546.91" departLane="free" departSpeed="max" id="17157" type="HV">
		<route edges="genE296 genE307"/>
	</vehicle>
	<vehicle depart="550.34" departLane="free" departSpeed="max" id="17871" type="HV">
		<route edges="genE316 genE317"/>
	</vehicle>
	<vehicle depart="561.77" departLane="free" departSpeed="max" id="17784" type="HV">
		<route edges="genE316 genE297"/>
	</vehicle>
	<vehicle depart="562.86" departLane="free" departSpeed="max" id="17975" type="HV">
		<route edges="genE316 genE317"/>
	</vehicle>
	<vehicle depart="563.96" departLane="free" departSpeed="max" id="18053" type="HV">
		<route edges="genE316 genE317"/>
	</vehicle>