<?xml version="1.0" ?>
<routes>
	<vType accel="0.8" decel="4.5" id="CV" length="5" maxSpeed="45" sigma="0.5"/>
	<vType accel="0.8" decel="4.5" id="HV" length="5" maxSpeed="40" sigma="0.5"/>
	<vehicle depart="0.4" departLane="free" departSpeed="max" id="19613" type="HV">
		<route edges="genE316 genE317"/>
	</vehicle>
	<vehicle depart="1.08" departLane="free" departSpeed="max" id="19764" type="HV">
		<route edges="genE316 genE317"/>
	</vehicle>
	<vehicle depart="3.25" departLane="free" departSpeed="max" id="19594" type="HV">
		<route edges="genE316 genE317"/>
	</vehicle>
	<vehicle depart="3.63" departLane="free" departSpeed="max" id="19438" type="HV">
		<route edges="genE316 genE297"/>
	</vehicle>
	<vehicle depart="4.77" departLane="free" departSpeed="max" id="19732" type="CV">
		<route edges="genE316 genE317"/>
	</vehicle>
	<vehicle depart="8.2" departLane="free" departSpeed="max" id="18095" type="HV">
		<route edges="genE318 genE297"/>
	</vehicle>
	<vehicle depart="9.45" departLane="free" departSpeed="max" id="18736" type="HV">
		<route edges="genE296 genE307"/>
	</vehicle>
	<vehicle depart="10.58" departLane="free" departSpeed="max" id="18944" type="HV">
		<route edges="genE296 genE317"/>
	</vehicle>
	<vehicle depart="11.35" departLane="free" departSpeed="max" id="18864" type="CV">
		<route edges="genE296 genE317"/>
	</vehicle>
	<vehicle depart="12.03" departLane="free" departSpeed="max" id="18575" type="CV">
		<route edges="genE296 genE307"/>
	</vehicle>
	<vehicle depart="13.89" departLane="free" departSpeed="max" id="19638" type="HV">
		<route edges="genE316 genE317"/>
	</vehicle>
	<vehicle depart="14.5" departLane="free" departSpeed="max" id="18916" type="HV">
		<route edges="genE296 genE317"/>
	</vehicle>
	<vehicle depart="16.87" departLane="free" departSpeed="max" id="18830" type="CV">
		<route edges="genE296 genE317"/>
	</vehicle>
	<vehicle depart="21.91" departLane="free" departSpeed="max" id="18148" type="HV">
		<route edges="genE318 genE297"/>
	</vehicle>
	<vehicle depart="25.84" departLane="free" departSpeed="max" id="18970" type="HV">
		<route edges="genE296 genE317"/>
	</vehicle>
	<vehicle depart="26.65" departLane="free" departSpeed="max" id="18218" type="CV">
		<route edges="genE318 genE307"/>
	</vehicle>
	<vehicle depart="26.98" departLane="free" departSpeed="max" id="18735" type="CV">
		<route edges="genE296 genE307"/>
	</vehicle>
	<vehicle depart="30.37" departLane="free" departSpeed="max" id="18804" type="HV">
		<route edges="genE296 genE307"/>
	</vehicle>
	<vehicle depart="30.58" departLane="free" departSpeed="max" id="19552" type="HV">
		<route edges="genE316 genE297"/>
	</vehicle>
	<vehicle depart="30.81" departLane="free" departSpeed="max" id="18513" type="HV">
		<route edges="genE296 genE307"/>
	</vehicle>
	<vehicle depart="34.96" departLane="free" departSpeed="max" id="19150" type="HV">
		<route edges="genE296 genE317"/>
	</vehicle>
	<vehicle depart="35.81" departLane="free" departSpeed="max" id="18620" type="HV">
		<route edges="genE296 genE307"/>
	</vehicle>
	<vehicle depart="36.89" departLane="free" departSpeed="max" id="18573" type="HV">
		<route edges="genE296 genE307"/>
	</vehicle>
	<vehicle depart="37.59" departLane="free" departSpeed="max" id="18427" type="HV">
		<route edges="genE318 genE307"/>
	</vehicle>
	<vehicle depart="39.93" departLane="free" departSpeed="max" id="19203" type="HV">
		<route edges="genE316 genE297"/>
	</vehicle>
	<vehicle depart="40.98" departLane="free" departSpeed="max" id="18173" type="HV">
		<route edges="genE318 genE297"/>
	</vehicle>
	<vehicle depart="43.95" departLane="free" departSpeed="max" id="19330" type="HV">
		<route edges="genE316 genE297"/>
	</vehicle>
	<vehicle depart="47.66" departLane="free" departSpeed="max" id="19389" type="HV">
		<route edges="genE316 genE297"/>
	</vehicle>
	<vehicle depart="48.2" departLane="free" departSpeed="max" id="19444" type="HV">
		<route edges="genE316 genE297"/>
	</vehicle>
	<vehicle depart="53.03" departLane="free" departSpeed="max" id="19133" type="CV">
		<route edges="genE296 genE317"/>
	</vehicle>
	<vehicle depart="54.89" departLane="free" departSpeed="max" id="18346" type="HV">
		<route edges="genE318 genE307"/>
	</vehicle>
	<vehicle depart="56.63" departLane="free" departSpeed="max" id="18467" type="HV">
		<route edges="genE318 genE307"/>
	</vehicle>
	<vehicle depart="60.04" departLane="free" departSpeed="max" id="18982" type="HV">
		<route edges="genE296 genE317"/>
	</vehicle>
	<vehicle depart="65.6" departLane="free" departSpeed="max" id="19607" type="HV">
		<route edges="genE316 genE317"/>
	</vehicle>
	<vehicle depart="65.93" departLane="free" departSpeed="max" id="18565" type="HV">
		<route edges="genE296 genE307"/>
	</vehicle>
	<vehicle depart="71.26" departLane="free" departSpeed="max" id="18613" type="HV">
		<route edges="genE296 genE307"/>
	</vehicle>
	<vehicle depart="71.39" departLane="free" departSpeed="max" id="18343" type="HV">
		<route edges="genE318 genE307"/>
	</vehicle>
	<vehicle depart="72.62" departLane="free" departSpeed="max" id="19485" type="HV">
		<route edges="genE316 genE297"/>
	</vehicle>
	<vehicle depart="75.2" departLane="free" departSpeed="max" id="19457" type="HV">
		<route edges="genE316 genE297"/>
	</vehicle>
	<vehicle depart="75.54" departLane="free" departSpeed="max" id="19440" type="CV">
		<route edges="genE316 genE297"/>
	</vehicle>
	<vehicle depart="77.41" departLane="free" departSpeed="max" id="19196" type="HV">
		<route edges="genE316 genE297"/>
	</vehicle>
	<vehicle depart="78.9" departLane="free" departSpeed="max" id="19230" type="HV">
		<route edges="genE316 genE297"/>
	</vehicle>
	<vehicle depart="80.12" departLane="free" departSpeed="max" id="19842" type="HV">
		<route edges="genE316 genE317"/>
	</vehicle>
	<vehicle depart="81.79" departLane="free" departSpeed="max" id="19379" type="CV">
		<route edges="genE316 genE297"/>
	</vehicle>
	<vehicle depart="84.55" departLane="free" departSpeed="max" id="18903" type="HV">
		<route edges="genE296 genE317"/>
	</vehicle>
	<vehicle depart="85.19" departLane="free" departSpeed="max" id="18963" type="HV">
		<route edges="genE296 genE317"/>
	</vehicle>
	<vehicle depart="85.62" departLane="free" departSpeed="max" id="19252" type="HV">
		<route edges="genE316 genE297"/>
	</vehicle>
	<vehicle depart="94.66" departLane="free" departSpeed="max" id="18437" type="HV">
		<route edges="genE318 genE307"/>
	</vehicle>
	<vehicle depart="96.43" departLane="free" departSpeed="max" id="19071" type="HV">
		<route edges="genE296 genE317"/>
	</vehicle>
	<vehicle depart="96.52" departLane="free" departSpeed="max" id="18200" type="HV">
		<route edges="genE318 genE297"/>
	</vehicle>
	<vehicle depart="101.02" departLane="free" departSpeed="max" id="19791" type="CV">
		<route edges="genE316 genE317"/>
	</vehicle>
	<vehicle depart="101.14" departLane="free" departSpeed="max" id="18690" type="CV">
		<route edges="genE296 genE307"/>
	</vehicle>
	<vehicle depart="102.33" departLane="free" departSpeed="max" id="18440" type="HV">
		<route edges="genE318 genE307"/>
	</vehicle>
	<vehicle depart="107.86" departLane="free" departSpeed="max" id="19352" type="HV">
		<route edges="genE316 genE297"/>
	</vehicle>
	<vehicle depart="111.02" departLane="free" departSpeed="max" id="18525" type="HV">
		<route edges="genE296 genE307"/>
	</vehicle>
	<vehicle depart="112.35" departLane="free" departSpeed="max" id="19756" type="HV">
		<route edges="genE316 genE317"/>
	</vehicle>
	<vehicle depart="113.09" departLane="free" departSpeed="max" id="19507" type="HV">
		<route edges="genE316 genE297"/>
	</vehicle>
	<vehicle depart="113.37" departLane="free" departSpeed="max" id="19201" type="HV">
		<route edges="genE316 genE297"/>
	</vehicle>
	<vehicle depart="113.6" departLane="free" departSpeed="max" id="18746" type="HV">
		<route edges="genE296 genE307"/>
	</vehicle>
	<vehicle depart="116.24" departLane="free" departSpeed="max" id="18867" type="HV">
		<route edges="genE296 genE317"/>
	</vehicle>
	<vehicle depart="116.45" departLane="free" departSpeed="max" id="19141" type="HV">
		<route edges="genE296 genE317"/>
	</vehicle>
	<vehicle depart="122.52" departLane="free" departSpeed="max" id="19797" type="CV">
		<route edges="genE316 genE317"/>
	</vehicle>
	<vehicle depart="122.53" departLane="free" departSpeed="max" id="18734" type="HV">
		<route edges="genE296 genE307"/>
	</vehicle>
	<vehicle depart="125.42" departLane="free" departSpeed="max" id="18528" type="HV">
		<route edges="genE296 genE307"/>
	</vehicle>
	<vehicle depart="130.04" departLane="free" departSpeed="max" id="19708" type="HV">
		<route edges="genE316 genE317"/>
	</vehicle>
	<vehicle depart="131.14" departLane="free" departSpeed="max" id="18600" type="HV">
		<route edges="genE296 genE307"/>
	</vehicle>
	<vehicle depart="137.18" departLane="free" departSpeed="max" id="18767" type="CV">
		<route edges="genE296 genE307"/>
	</vehicle>
	<vehicle depart="137.34" departLane="free" departSpeed="max" id="19262" type="HV">
		<route edges="genE316 genE297"/>
	</vehicle>
	<vehicle depart="140.12" departLane="free" departSpeed="max" id="19125" type="CV">
		<route edges="genE296 genE317"/>
	</vehicle>
	<vehicle depart="141.52" departLane="free" departSpeed="max" id="19609" type="CV">
		<route edges="genE316 genE317"/>
	</vehicle>
	<vehicle depart="143.05" departLane="free" departSpeed="max" id="18537" type="HV">
		<route edges="genE296 genE307"/>
	</vehicle>
	<vehicle depart="144.35" departLane="free" departSpeed="max" id="18971" type="CV">
		<route edges="genE296 genE317"/>
	</vehicle>
	<vehicle depart="152.45" departLane="free" departSpeed="max" id="19184" type="HV">
		<route edges="genE296 genE317"/>
	</vehicle>
	<vehicle depart="153.06" departLane="free" departSpeed="max" id="19248" type="CV">
		<route edges="genE316 genE297"/>
	</vehicle>
	<vehicle depart="153.15" departLane="free" departSpeed="max" id="18952" type="HV">
		<route edges="genE296 genE317"/>
	</vehicle>
	<vehicle depart="153.49" departLane="free" departSpeed="max" id="18348" type="HV">
		<route edges="genE318 genE307"/>
	</vehicle>
	<vehicle depart="154.29" departLane="free" departSpeed="max" id="19737" type="CV">
		<route edges="genE316 genE317"/>
	</vehicle>
	<vehicle depart="156.35" departLane="free" departSpeed="max" id="19590" type="HV">
		<route edges="genE316 genE317"/>
	</vehicle>
	<vehicle depart="158.86" departLane="free" departSpeed="max" id="18659" type="HV">
		<route edges="genE296 genE307"/>
	</vehicle>
	<vehicle depart="162.44" departLane="free" departSpeed="max" id="18399" type="CV">
		<route edges="genE318 genE307"/>
	</vehicle>
	<vehicle depart="163.81" departLane="free" departSpeed="max" id="18879" type="HV">
		<route edges="genE296 genE317"/>
	</vehicle>
	<vehicle depart="169.93" departLane="free" departSpeed="max" id="18706" type="HV">
		<route edges="genE296 genE307"/>
	</vehicle>
	<vehicle depart="170.41" departLane="free" departSpeed="max" id="18784" type="HV">
		<route edges="genE296 genE307"/>
	</vehicle>
	<vehicle depart="170.67" departLane="free" departSpeed="max" id="18178" type="HV">
		<route edges="genE318 genE297"/>
	</vehicle>
	<vehicle depart="170.77" departLane="free" departSpeed="max" id="18826" type="HV">
		<route edges="genE296 genE317"/>
	</vehicle>
	<vehicle depart="170.93" departLane="free" departSpeed="max" id="19518" type="HV">
		<route edges="genE316 genE297"/>
	</vehicle>
	<vehicle depart="174.63" departLane="free" departSpeed="max" id="18581" type="HV">
		<route edges="genE296 genE307"/>
	</vehicle>
	<vehicle depart="175.21" departLane="free" departSpeed="max" id="18120" type="HV">
		<route edges="genE318 genE297"/>
	</vehicle>
	<vehicle depart="175.69" departLane="free" departSpeed="max" id="18269" type="CV">
		<route edges="genE318 genE307"/>
	</vehicle>
	<vehicle depart="176.86" departLane="free" departSpeed="max" id="18163" type="HV">
		<route edges="genE318 genE297"/>
	</vehicle>
	<vehicle depart="177.32" departLane="free" departSpeed="max" id="19279" type="CV">
		<route edges="genE316 genE297"/>
	</vehicle>
	<vehicle depart="177.69" departLane="free" departSpeed="max" id="18223" type="HV">
		<route edges="genE318 genE307"/>
	</vehicle>
	<vehicle depart="177.93" departLane="free" departSpeed="max" id="18946" type="HV">
		<route edges="genE296 genE317"/>
	</vehicle>
	<vehicle depart="180.65" departLane="free" departSpeed="max" id="18283" type="HV">
		<route edges="genE318 genE307"/>
	</vehicle>
	<vehicle depart="182.93" departLane="free" departSpeed="max" id="18653" type="HV">
		<route edges="genE296 genE307"/>
	</vehicle>
	<vehicle depart="187.58" departLane="free" departSpeed="max" id="18655" type="HV">
		<route edges="genE296 genE307"/>
	</vehicle>
	<vehicle depart="188.24" departLane="free" departSpeed="max" id="19414" type="HV">
		<route edges="genE316 genE297"/>
	</vehicle>
	<vehicle depart="190.82" departLane="free" departSpeed="max" id="19245" type="HV">
		<route edges="genE316 genE297"/>
	</vehicle>
	<vehicle depart="191.81" departLane="free" departSpeed="max" id="18408" type="HV">
		<route edges="genE318 genE307"/>
	</vehicle>
	<vehicle depart="192.8" departLane="free" departSpeed="max" id="18259" type="HV">
		<route edges="genE318 genE307"/>
	</vehicle>
	<vehicle depart="194.16" departLane="free" departSpeed="max" id="18196" type="HV">
		<route edges="genE318 genE297"/>
	</vehicle>
	<vehicle depart="194.58" departLane="free" departSpeed="max" id="19766" type="CV">
		<route edges="genE316 genE317"/>
	</vehicle>
	<vehicle depart="196.57" departLane="free" departSpeed="max" id="19752" type="HV">
		<route edges="genE316 genE317"/>
	</vehicle>
	<vehicle depart="196.69" departLane="free" departSpeed="max" id="18862" type="HV">
		<route edges="genE296 genE317"/>
	</vehicle>
	<vehicle depart="200.55" departLane="free" departSpeed="max" id="18921" type="HV">
		<route edges="genE296 genE317"/>
	</vehicle>
	<vehicle depart="201.7" departLane="free" departSpeed="max" id="18813" type="CV">
		<route edges="genE296 genE307"/>
	</vehicle>
	<vehicle depart="204.46" departLane="free" departSpeed="max" id="18300" type="HV">
		<route edges="genE318 genE307"/>
	</vehicle>
	<vehicle depart="206.44" departLane="free" departSpeed="max" id="19539" type="HV">
		<route edges="genE316 genE297"/>
	</vehicle>
	<vehicle depart="208.11" departLane="free" departSpeed="max" id="18381" type="HV">
		<route edges="genE318 genE307"/>
	</vehicle>
	<vehicle depart="209.9" departLane="free" departSpeed="max" id="19468" type="HV">
		<route edges="genE316 genE297"/>
	</vehicle>
	<vehicle depart="211.5" departLane="free" departSpeed="max" id="18462" type="HV">
		<route edges="genE318 genE307"/>
	</vehicle>
	<vehicle depart="213.84" departLane="free" departSpeed="max" id="19261" type="CV">
		<route edges="genE316 genE297"/>
	</vehicle>
	<vehicle depart="213.87" departLane="free" departSpeed="max" id="19258" type="HV">
		<route edges="genE316 genE297"/>
	</vehicle>
	<vehicle depart="216.53" departLane="free" departSpeed="max" id="18822" type="HV">
		<route edges="genE296 genE317"/>
	</vehicle>
	<vehicle depart="218.58" departLane="free" departSpeed="max" id="19461" type="HV">
		<route edges="genE316 genE297"/>
	</vehicle>
	<vehicle depart="219.48" departLane="free" departSpeed="max" id="19767" type="HV">
		<route edges="genE316 genE317"/>
	</vehicle>
	<vehicle depart="220.76" departLane="free" departSpeed="max" id="18747" type="HV">
		<route edges="genE296 genE307"/>
	</vehicle>
	<vehicle depart="221.16" departLane="free" departSpeed="max" id="19316" type="HV">
		<route edges="genE316 genE297"/>
	</vehicle>
	<vehicle depart="221.38" departLane="free" departSpeed="max" id="18703" type="HV">
		<route edges="genE296 genE307"/>
	</vehicle>
	<vehicle depart="229.13" departLane="free" departSpeed="max" id="18174" type="HV">
		<route edges="genE318 genE297"/>
	</vehicle>
	<vehicle depart="229.39" departLane="free" departSpeed="max" id="18494" type="HV">
		<route edges="genE296 genE307"/>
	</vehicle>
	<vehicle depart="230.54" departLane="free" departSpeed="max" id="18254" type="HV">
		<route edges="genE318 genE307"/>
	</vehicle>
	<vehicle depart="233.71" departLane="free" departSpeed="max" id="19847" type="HV">
		<route edges="genE316 genE317"/>
	</vehicle>
	<vehicle depart="234.93" departLane="free" departSpeed="max" id="19540" type="HV">
		<route edges="genE316 genE297"/>
	</vehicle>
	<vehicle depart="236.0" departLane="free" departSpeed="max" id="18203" type="HV">
		<route edges="genE318 genE297"/>
	</vehicle>
	<vehicle depart="238.06" departLane="free" departSpeed="max" id="19233" type="HV">
		<route edges="genE316 genE297"/>
	</vehicle>
	<vehicle depart="240.13" departLane="free" departSpeed="max" id="18526" type="HV">
		<route edges="genE296 genE307"/>
	</vehicle>
	<vehicle depart="246.87" departLane="free" departSpeed="max" id="19398" type="HV">
		<route edges="genE316 genE297"/>
	</vehicle>
	<vehicle depart="250.98" departLane="free" departSpeed="max" id="19649" type="HV">
		<route edges="genE316 genE317"/>
	</vehicle>
	<vehicle depart="252.53" departLane="free" departSpeed="max" id="18247" type="HV">
		<route edges="genE318 genE307"/>
	</vehicle>
	<vehicle depart="256.12" departLane="free" departSpeed="max" id="19706" type="HV">
		<route edges="genE316 genE317"/>
	</vehicle>
	<vehicle depart="262.22" departLane="free" departSpeed="max" id="18430" type="HV">
		<route edges="genE318 genE307"/>
	</vehicle>
	<vehicle depart="265.65" departLane="free" departSpeed="max" id="19347" type="HV">
		<route edges="genE316 genE297"/>
	</vehicle>
	<vehicle depart="268.88" departLane="free" departSpeed="max" id="19272" type="HV">
		<route edges="genE316 genE297"/>
	</vehicle>
	<vehicle depart="270.59" departLane="free" departSpeed="max" id="19620" type="HV">
		<route edges="genE316 genE317"/>
	</vehicle>
	<vehicle depart="270.71" departLane="free" departSpeed="max" id="19519" type="HV">
		<route edges="genE316 genE297"/>
	</vehicle>
	<vehicle depart="274.38" departLane="free" departSpeed="max" id="19025" type="HV">
		<route edges="genE296 genE317"/>
	</vehicle>
	<vehicle depart="277.86" departLane="free" departSpeed="max" id="18521" type="HV">
		<route edges="genE296 genE307"/>
	</vehicle>
	<vehicle depart="278.61" departLane="free" departSpeed="max" id="18754" type="HV">
		<route edges="genE296 genE307"/>
	</vehicle>
	<vehicle depart="278.83" departLane="free" departSpeed="max" id="18065" type="HV">
		<route edges="genE318 genE297"/>
	</vehicle>
	<vehicle depart="279.66" departLane="free" departSpeed="max" id="19650" type="HV">
		<route edges="genE316 genE317"/>
	</vehicle>
	<vehicle depart="289.57" departLane="free" departSpeed="max" id="19636" type="HV">
		<route edges="genE316 genE317"/>
	</vehicle>
	<vehicle depart="292.06" departLane="free" departSpeed="max" id="18136" type="HV">
		<route edges="genE318 genE297"/>
	</vehicle>
	<vehicle depart="299.42" departLane="free" departSpeed="max" id="19405" type="HV">
		<route edges="genE316 genE297"/>
	</vehicle>
	<vehicle depart="300.45" departLane="free" departSpeed="max" id="18319" type="HV">
		<route edges="genE318 genE307"/>
	</vehicle>
	<vehicle depart="303.19" departLane="free" departSpeed="max" id="18938" type="HV">
		<route edges="genE296 genE317"/>
	</vehicle>
	<vehicle depart="303.44" departLane="free" departSpeed="max" id="19740" type="HV">
		<route edges="genE316 genE317"/>
	</vehicle>
	<vehicle depart="304.15" departLane="free" departSpeed="max" id="18996" type="HV">
		<route edges="genE296 genE317"/>
	</vehicle>
	<vehicle depart="304.62" departLane="free" departSpeed="max" id="18444" type="HV">
		<route edges="genE318 genE307"/>
	</vehicle>
	<vehicle depart="306.61" departLane="free" departSpeed="max" id="19349" type="CV">
		<route edges="genE316 genE297"/>
	</vehicle>
	<vehicle depart="309.24" departLane="free" departSpeed="max" id="18682" type="HV">
		<route edges="genE296 genE307"/>
	</vehicle>
	<vehicle depart="309.53" departLane="free" departSpeed="max" id="18768" type="HV">
		<route edges="genE296 genE307"/>
	</vehicle>
	<vehicle depart="310.15" departLane="free" departSpeed="max" id="18146" type="HV">
		<route edges="genE318 genE297"/>
	</vehicle>
	<vehicle depart="310.62" departLane="free" departSpeed="max" id="18683" type="CV">
		<route edges="genE296 genE307"/>
	</vehicle>
	<vehicle depart="313.97" departLane="free" departSpeed="max" id="19862" type="HV">
		<route edges="genE316 genE317"/>
	</vehicle>
	<vehicle depart="314.18" departLane="free" departSpeed="max" id="19235" type="HV">
		<route edges="genE316 genE297"/>
	</vehicle>
	<vehicle depart="314.28" departLane="free" departSpeed="max" id="18187" type="CV">
		<route edges="genE318 genE297"/>
	</vehicle>
	<vehicle depart="318.09" departLane="free" departSpeed="max" id="18972" type="CV">
		<route edges="genE296 genE317"/>
	</vehicle>
	<vehicle depart="323.02" departLane="free" departSpeed="max" id="19066" type="HV">
		<route edges="genE296 genE317"/>
	</vehicle>
	<vehicle depart="324.02" departLane="free" departSpeed="max" id="19465" type="HV">
		<route edges="genE316 genE297"/>
	</vehicle>
	<vehicle depart="326.79" departLane="free" departSpeed="max" id="19147" type="HV">
		<route edges="genE296 genE317"/>
	</vehicle>
	<vehicle depart="329.25" departLane="free" departSpeed="max" id="18171" type="CV">
		<route edges="genE318 genE297"/>
	</vehicle>
	<vehicle depart="329.62" departLane="free" departSpeed="max" id="19483" type="HV">
		<route edges="genE316 genE297"/>
	</vehicle>
	<vehicle depart="335.69" departLane="free" departSpeed="max" id="18463" type="HV">
		<route edges="genE318 genE307"/>
	</vehicle>
	<vehicle depart="337.95" departLane="free" departSpeed="max" id="18939" type="HV">
		<route edges="genE296 genE317"/>
	</vehicle>
	<vehicle depart="338.64" departLane="free" departSpeed="max" id="19140" type="HV">
		<route edges="genE296 genE317"/>
	</vehicle>
	<vehicle depart="338.97" departLane="free" departSpeed="max" id="19587" type="CV">
		<route edges="genE316 genE317"/>
	</vehicle>
	<vehicle depart="340.2" departLane="free" departSpeed="max" id="18913" type="HV">
		<route edges="genE296 genE317"/>
	</vehicle>
	<vehicle depart="340.81" departLane="free" departSpeed="max" id="19565" type="CV">
		<route edges="genE316 genE297"/>
	</vehicle>
	<vehicle depart="341.36" departLane="free" departSpeed="max" id="19449" type="CV">
		<route edges="genE316 genE297"/>
	</vehicle>
	<vehicle depart="344.74" departLane="free" departSpeed="max" id="19839" type="CV">
		<route edges="genE316 genE317"/>
	</vehicle>
	<vehicle depart="346.61" departLane="free" departSpeed="max" id="19547" type="CV">
		<route edges="genE316 genE297"/>
	</vehicle>
	<vehicle depart="348.84" departLane="free" departSpeed="max" id="18857" type="HV">
		<route edges="genE296 genE317"/>
	</vehicle>
	<vehicle depart="349.04" departLane="free" departSpeed="max" id="18839" type="CV">
		<route edges="genE296 genE317"/>
	</vehicle>
	<vehicle depart="351.23" departLane="free" departSpeed="max" id="19788" type="HV">
		<route edges="genE316 genE317"/>
	</vehicle>
	<vehicle depart="351.62" departLane="free" departSpeed="max" id="19654" type="HV">
		<route edges="genE316 genE317"/>
	</vehicle>
	<vehicle depart="354.95" departLane="free" departSpeed="max" id="19178" type="HV">
		<route edges="genE296 genE317"/>
	</vehicle>
	<vehicle depart="355.1" departLane="free" departSpeed="max" id="19569" type="HV">
		<route edges="genE316 genE297"/>
	</vehicle>
	<vehicle depart="355.22" departLane="free" departSpeed="max" id="19176" type="HV">
		<route edges="genE296 genE317"/>
	</vehicle>
	<vehicle depart="356.22" departLane="free" departSpeed="max" id="18761" type="HV">
		<route edges="genE296 genE307"/>
	</vehicle>
	<vehicle depart="358.48" departLane="free" departSpeed="max" id="19306" type="HV">
		<route edges="genE316 genE297"/>
	</vehicle>
	<vehicle depart="359.27" departLane="free" departSpeed="max" id="19043" type="HV">
		<route edges="genE296 genE317"/>
	</vehicle>
	<vehicle depart="360.21" departLane="free" departSpeed="max" id="18923" type="CV">
		<route edges="genE296 genE317"/>
	</vehicle>
	<vehicle depart="361.4" departLane="free" departSpeed="max" id="18619" type="HV">
		<route edges="genE296 genE307"/>
	</vehicle>
	<vehicle depart="361.52" departLane="free" departSpeed="max" id="19159" type="HV">
		<route edges="genE296 genE317"/>
	</vehicle>
	<vehicle depart="363.62" departLane="free" departSpeed="max" id="18295" type="CV">
		<route edges="genE318 genE307"/>
	</vehicle>
	<vehicle depart="372.15" departLane="free" departSpeed="max" id="18409" type="CV">
		<route edges="genE318 genE307"/>
	</vehicle>
	<vehicle depart="375.61" departLane="free" departSpeed="max" id="19697" type="HV">
		<route edges="genE316 genE317"/>
	</vehicle>
	<vehicle depart="377.98" departLane="free" departSpeed="max" id="19385" type="HV">
		<route edges="genE316 genE297"/>
	</vehicle>
	<vehicle depart="378.99" departLane="free" departSpeed="max" id="18591" type="HV">
		<route edges="genE296 genE307"/>
	</vehicle>
	<vehicle depart="380.52" departLane="free" departSpeed="max" id="18425" type="HV">
		<route edges="genE318 genE307"/>
	</vehicle>
	<vehicle depart="382.11" departLane="free" departSpeed="max" id="19520" type="HV">
		<route edges="genE316 genE297"/>
	</vehicle>
	<vehicle depart="390.92" departLane="free" departSpeed="max" id="19144" type="HV">
		<route edges="genE296 genE317"/>
	</vehicle>
	<vehicle depart="392.26" departLane="free" departSpeed="max" id="18503" type="HV">
		<route edges="genE296 genE307"/>
	</vehicle>
	<vehicle depart="394.88" departLane="free" departSpeed="max" id="19027" type="HV">
		<route edges="genE296 genE317"/>
	</vehicle>
	<vehicle depart="396.41" departLane="free" departSpeed="max" id="19134" type="CV">
		<route edges="genE296 genE317"/>
	</vehicle>
	<vehicle depart="398.04" departLane="free" departSpeed="max" id="19018" type="HV">
		<route edges="genE296 genE317"/>
	</vehicle>
	<vehicle depart="398.4" departLane="free" departSpeed="max" id="18930" type="CV">
		<route edges="genE296 genE317"/>
	</vehicle>
	<vehicle depart="401.22" departLane="free" departSpeed="max" id="18243" type="HV">
		<route edges="genE318 genE307"/>
	</vehicle>
	<vehicle depart="401.93" departLane="free" departSpeed="max" id="18730" type="HV">
		<route edges="genE296 genE307"/>
	</vehicle>
	<vehicle depart="401.96" departLane="free" departSpeed="max" id="19287" type="HV">
		<route edges="genE316 genE297"/>
	</vehicle>
	<vehicle depart="402.08" departLane="free" departSpeed="max" id="18216" type="CV">
		<route edges="genE318 genE307"/>
	</vehicle>
	<vehicle depart="405.07" departLane="free" departSpeed="max" id="19598" type="CV">
		<route edges="genE316 genE317"/>
	</vehicle>
	<vehicle depart="406.2" departLane="free" departSpeed="max" id="18905" type="CV">
		<route edges="genE296 genE317"/>
	</vehicle>
	<vehicle depart="407.32" departLane="free" departSpeed="max" id="18792" type="HV">
		<route edges="genE296 genE307"/>
	</vehicle>
	<vehicle depart="414.29" departLane="free" departSpeed="max" id="18160" type="CV">
		<route edges="genE318 genE297"/>
	</vehicle>
	<vehicle depart="416.23" departLane="free" departSpeed="max" id="18273" type="HV">
		<route edges="genE318 genE307"/>
	</vehicle>
	<vehicle depart="417.67" departLane="free" departSpeed="max" id="18646" type="CV">
		<route edges="genE296 genE307"/>
	</vehicle>
	<vehicle depart="420.0" departLane="free" departSpeed="max" id="18833" type="HV">
		<route edges="genE296 genE317"/>
	</vehicle>
	<vehicle depart="420.03" departLane="free" departSpeed="max" id="18088" type="CV">
		<route edges="genE318 genE297"/>
	</vehicle>
	<vehicle depart="420.58" departLane="free" departSpeed="max" id="19530" type="CV">
		<route edges="genE316 genE297"/>
	</vehicle>
	<vehicle depart="421.6" departLane="free" departSpeed="max" id="19143" type="HV">
		<route edges="genE296 genE317"/>
	</vehicle>
	<vehicle depart="427.23" departLane="free" departSpeed="max" id="19643" type="HV">
		<route edges="genE316 genE317"/>
	</vehicle>
	<vehicle depart="427.88" departLane="free" departSpeed="max" id="18450" type="HV">
		<route edges="genE318 genE307"/>
	</vehicle>
	<vehicle depart="428.5" departLane="free" departSpeed="max" id="19222" type="HV">
		<route edges="genE316 genE297"/>
	</vehicle>
	<vehicle depart="430.78" departLane="free" departSpeed="max" id="19267" type="HV">
		<route edges="genE316 genE297"/>
	</vehicle>
	<vehicle depart="431.48" departLane="free" departSpeed="max" id="19416" type="HV">
		<route edges="genE316 genE297"/>
	</vehicle>
	<vehicle depart="435.31" departLane="free" departSpeed="max" id="18606" type="HV">
		<route edges="genE296 genE307"/>
	</vehicle>
	<vehicle depart="435.92" departLane="free" departSpeed="max" id="19113" type="HV">
		<route edges="genE296 genE317"/>
	</vehicle>
	<vehicle depart="437.73" departLane="free" departSpeed="max" id="18848" type="HV">
		<route edges="genE296 genE317"/>
	</vehicle>
	<vehicle depart="438.45" departLane="free" departSpeed="max" id="19733" type="HV">
		<route edges="genE316 genE317"/>
	</vehicle>
	<vehicle depart="439.38" departLane="free" departSpeed="max" id="18542" type="HV">
		<route edges="genE296 genE307"/>
	</vehicle>
	<vehicle depart="445.07" departLane="free" departSpeed="max" id="19401" type="HV">
		<route edges="genE316 genE297"/>
	</vehicle>
	<vehicle depart="450.29" departLane="free" departSpeed="max" id="19074" type="HV">
		<route edges="genE296 genE317"/>
	</vehicle>
	<vehicle depart="453.48" departLane="free" departSpeed="max" id="18828" type="HV">
		<route edges="genE296 genE317"/>
	</vehicle>
	<vehicle depart="454.61" departLane="free" departSpeed="max" id="18393" type="HV">
		<route edges="genE318 genE307"/>
	</vehicle>
	<vehicle depart="454.9" departLane="free" departSpeed="max" id="19215" type="HV">
		<route edges="genE316 genE297"/>
	</vehicle>
	<vehicle depart="458.18" departLane="free" departSpeed="max" id="19526" type="HV">
		<route edges="genE316 genE297"/>
	</vehicle>