<?xml version="1.0" ?>
<routes>
	<vType accel="0.8" decel="4.5" id="CV" length="5" maxSpeed="45" sigma="0.5"/>
	<vType accel="0.8" decel="4.5" id="HV" length="5" maxSpeed="40" sigma="0.5"/>
	<vehicle depart="58.33" departLane="free" departSpeed="max" id="23870" type="HV">
		<route edges="genE296 genE317"/>
	</vehicle>
	<vehicle depart="66.53" departLane="free" departSpeed="max" id="23872" type="HV">
		<route edges="genE296 genE317"/>
	</vehicle>
	<vehicle depart="67.48" departLane="free" departSpeed="max" id="23782" type="HV">
		<route edges="genE318 genE307"/>
	</vehicle>
	<vehicle depart="75.69" departLane="free" departSpeed="max" id="23779" type="HV">
		<route edges="genE318 genE307"/>
	</vehicle>
	<vehicle depart="89.53" departLane="free" departSpeed="max" id="23803" type="CV">
		<route edges="genE296 genE307"/>
	</vehicle>
	<vehicle depart="96.97" departLane="free" departSpeed="max" id="23971" type="HV">
		<route edges="genE316 genE317"/>
	</vehicle>
	<vehicle depart="112.17" departLane="free" departSpeed="max" id="23742" type="HV">
		<route edges="genE318 genE297"/>
	</vehicle>
	<vehicle depart="116.88" departLane="free" departSpeed="max" id="23818" type="HV">
		<route edges="genE296 genE307"/>
	</vehicle>
	<vehicle depart="125.09" departLane="free" departSpeed="max" id="23849" type="HV">
		<route edges="genE296 genE317"/>
	</vehicle>
	<vehicle depart="135.37" departLane="free" departSpeed="max" id="23850" type="HV">
		<route edges="genE296 genE317"/>
	</vehicle>
	<vehicle depart="151.14" departLane="free" departSpeed="max" id="23991" type="HV">
		<route edges="genE316 genE317"/>
	</vehicle>
	<vehicle depart="156.65" departLane="free" departSpeed="max" id="23840" type="HV">
		<route edges="genE296 genE307"/>
	</vehicle>
	<vehicle depart="157.99" departLane="free" departSpeed="max" id="23835" type="HV">
		<route edges="genE296 genE307"/>
	</vehicle>
	<vehicle depart="178.27" departLane="free" departSpeed="max" id="23986" type="HV">
		<route edges="genE316 genE317"/>
	</vehicle>
	<vehicle depart="183.99" departLane="free" departSpeed="max" id="23786" type="HV">
		<route edges="genE318 genE307"/>
	</vehicle>
	<vehicle depart="188.7" departLane="free" departSpeed="max" id="23760" type="CV">
		<route edges="genE318 genE297"/>
	</vehicle>
	<vehicle depart="208.53" departLane="free" departSpeed="max" id="23998" type="CV">
		<route edges="genE316 genE317"/>
	</vehicle>
	<vehicle depart="234.15" departLane="free" departSpeed="max" id="23999" type="HV">
		<route edges="genE316 genE317"/>
	</vehicle>
	<vehicle depart="246.13" departLane="free" departSpeed="max" id="23756" type="CV">
		<route edges="genE318 genE297"/>
	</vehicle>
	<vehicle depart="265.28" departLane="free" departSpeed="max" id="23951" type="HV">
		<route edges="genE316 genE297"/>
	</vehicle>
	<vehicle depart="275.76" departLane="free" departSpeed="max" id="23775" type="CV">
		<route edges="genE318 genE307"/>
	</vehicle>
	<vehicle depart="276.69" departLane="free" departSpeed="max" id="23937" type="HV">
		<route edges="genE316 genE297"/>
	</vehicle>
	<vehicle depart="287.39" departLane="free" departSpeed="max" id="23828" type="HV">
		<route edges="genE296 genE307"/>
	</vehicle>
	<vehicle depart="290.35" departLane="free" departSpeed="max" id="23807" type="HV">
		<route edges="genE296 genE307"/>
	</vehicle>
	<vehicle depart="308.35" departLane="free" departSpeed="max" id="23985" type="HV">
		<route edges="genE316 genE317"/>
	</vehicle>
	<vehicle depart="334.81" departLane="free" departSpeed="max" id="23876" type="CV">
		<route edges="genE296 genE317"/>
	</vehicle>
	<vehicle depart="346.22" departLane="free" departSpeed="max" id="23994" type="CV">
		<route edges="genE316 genE317"/>
	</vehicle>
	<vehicle depart="378.11" departLane="free" departSpeed="max" id="23914" type="HV">
		<route edges="genE316 genE297"/>
	</vehicle>
	<vehicle depart="380.51" departLane="free" departSpeed="max" id="23944" type="HV">
		<route edges="genE316 genE297"/>
	</vehicle>
	<vehicle depart="381.84" departLane="free" departSpeed="max" id="23881" type="HV">
		<route edges="genE296 genE317"/>
	</vehicle>
	<vehicle depart="382.16" departLane="free" departSpeed="max" id="23783" type="HV">
		<route edges="genE318 genE307"/>
	</vehicle>
	<vehicle depart="397.79" departLane="free" departSpeed="max" id="23889" type="HV">
		<route edges="genE296 genE317"/>
	</vehicle>
	<vehicle depart="405.53" departLane="free" departSpeed="max" id="23837" type="CV">
		<route edges="genE296 genE307"/>
	</vehicle>
	<vehicle depart="424.46" departLane="free" departSpeed="max" id="23823" type="HV">
		<route edges="genE296 genE307"/>
	</vehicle>
	<vehicle depart="435.72" departLane="free" departSpeed="max" id="23795" type="HV">
		<route edges="genE318 genE307"/>
	</vehicle>
	<vehicle depart="450.81" departLane="free" departSpeed="max" id="23981" type="HV">
		<route edges="genE316 genE317"/>
	</vehicle>
	<vehicle depart="528.44" departLane="free" departSpeed="max" id="23873" type="HV">
		<route edges="genE296 genE317"/>
	</vehicle>
	<vehicle depart="532.03" departLane="free" departSpeed="max" id="23893" type="HV">
		<route edges="genE296 genE317"/>
	</vehicle>
	<vehicle depart="537.39" departLane="free" departSpeed="max" id="23855" type="HV">
		<route edges="genE296 genE317"/>
	</vehicle>
	<vehicle depart="540.25" departLane="free" departSpeed="max" id="23901" type="HV">
		<route edges="genE296 genE317"/>
	</vehicle>
	<vehicle depart="550.94" departLane="free" departSpeed="max" id="23882" type="HV">
		<route edges="genE296 genE317"/>
	</vehicle>
	<vehicle depart="567.86" departLane="free" departSpeed="max" id="23975" type="CV">
		<route edges="genE316 genE317"/>
	</vehicle>
	<vehicle depart="577.25" departLane="free" departSpeed="max" id="23794" type="CV">
		<route edges="genE318 genE307"/>
	</vehicle>
	<vehicle depart="625.25" departLane="free" departSpeed="max" id="23796" type="HV">
		<route edges="genE318 genE307"/>
	</vehicle>
	<vehicle depart="629.58" departLane="free" departSpeed="max" id="23993" type="HV">
		<route edges="genE316 genE317"/>
	</vehicle>
	<vehicle depart="634.59" departLane="free" departSpeed="max" id="23957" type="CV">
		<route edges="genE316 genE317"/>
	</vehicle>
	<vehicle depart="636.38" departLane="free" departSpeed="max" id="23918" type="HV">
		<route edges="genE316 genE297"/>
	</vehicle>
	<vehicle depart="639.46" departLane="free" departSpeed="max" id="23746" type="HV">
		<route edges="genE318 genE297"/>
	</vehicle>
	<vehicle depart="658.05" departLane="free" departSpeed="max" id="23766" type="CV">
		<route edges="genE318 genE307"/>
	</vehicle>
	<vehicle depart="676.56" departLane="free" departSpeed="max" id="23816" type="HV">
		<route edges="genE296 genE307"/>
	</vehicle>
	<vehicle depart="677.34" departLane="free" departSpeed="max" id="23920" type="HV">
		<route edges="genE316 genE297"/>
	</vehicle>
	<vehicle depart="703.77" departLane="free" departSpeed="max" id="23978" type="HV">
		<route edges="genE316 genE317"/>
	</vehicle>
	<vehicle depart="749.67" departLane="free" departSpeed="max" id="23744" type="HV">
		<route edges="genE318 genE297"/>
	</vehicle>
	<vehicle depart="770.63" departLane="free" departSpeed="max" id="23776" type="HV">
		<route edges="genE318 genE307"/>
	</vehicle>
	<vehicle depart="770.92" departLane="free" departSpeed="max" id="23808" type="HV">
		<route edges="genE296 genE307"/>
	</vehicle>
	<vehicle depart="773.98" departLane="free" departSpeed="max" id="23892" type="HV">
		<route edges="genE296 genE317"/>
	</vehicle>
	<vehicle depart="781.26" departLane="free" departSpeed="max" id="23820" type="HV">
		<route edges="genE296 genE307"/>
	</vehicle>
	<vehicle depart="808.77" departLane="free" departSpeed="max" id="23745" type="HV">
		<route edges="genE318 genE297"/>
	</vehicle>
	<vehicle depart="814.7" departLane="free" departSpeed="max" id="23799" type="HV">
		<route edges="genE318 genE307"/>
	</vehicle>
	<vehicle depart="816.53" departLane="free" departSpeed="max" id="23983" type="HV">
		<route edges="genE316 genE317"/>
	</vehicle>
	<vehicle depart="817.46" departLane="free" departSpeed="max" id="23792" type="HV">
		<route edges="genE318 genE307"/>
	</vehicle>
	<vehicle depart="820.4" departLane="free" departSpeed="max" id="23885" type="HV">
		<route edges="genE296 genE317"/>
	</vehicle>
	<vehicle depart="826.69" departLane="free" departSpeed="max" id="23866" type="HV">
		<route edges="genE296 genE317"/>
	</vehicle>
	<vehicle depart="828.04" departLane="free" departSpeed="max" id="23908" type="HV">
		<route edges="genE316 genE297"/>
	</vehicle>
	<vehicle depart="836.21" departLane="free" departSpeed="max" id="23970" type="HV">
		<route edges="genE316 genE317"/>
	</vehicle>
	<vehicle depart="838.19" departLane="free" departSpeed="max" id="23977" type="HV">
		<route edges="genE316 genE317"/>
	</vehicle>
	<vehicle depart="844.48" departLane="free" departSpeed="max" id="23848" type="HV">
		<route edges="genE296 genE307"/>
	</vehicle>
	<vehicle depart="851.18" departLane="free" departSpeed="max" id="23747" type="HV">
		<route edges="genE318 genE297"/>
	</vehicle>
	<vehicle depart="851.26" departLane="free" departSpeed="max" id="23804" type="HV">
		<route edges="genE296 genE307"/>
	</vehicle>
	<vehicle depart="853.03" departLane="free" departSpeed="max" id="23900" type="HV">
		<route edges="genE296 genE317"/>
	</vehicle>
	<vehicle depart="869.78" departLane="free" departSpeed="max" id="23877" type="HV">
		<route edges="genE296 genE317"/>
	</vehicle>
	<vehicle depart="874.19" departLane="free" departSpeed="max" id="23842" type="CV">
		<route edges="genE296 genE307"/>
	</vehicle>
	<vehicle depart="880.18" departLane="free" departSpeed="max" id="23952" type="CV">
		<route edges="genE316 genE297"/>
	</vehicle>
	<vehicle depart="884.32" departLane="free" departSpeed="max" id="23801" type="CV">
		<route edges="genE296 genE307"/>
	</vehicle>
	<vehicle depart="914.27" departLane="free" departSpeed="max" id="23955" type="CV">
		<route edges="genE316 genE297"/>
	</vehicle>
	<vehicle depart="923.85" departLane="free" departSpeed="max" id="23825" type="HV">
		<route edges="genE296 genE307"/>
	</vehicle>
	<vehicle depart="941.35" departLane="free" departSpeed="max" id="23757" type="CV">
		<route edges="genE318 genE297"/>
	</vehicle>
	<vehicle depart="942.93" departLane="free" departSpeed="max" id="23905" type="HV">
		<route edges="genE316 genE297"/>
	</vehicle>
	<vehicle depart="956.61" departLane="free" departSpeed="max" id="23845" type="HV">
		<route edges="genE296 genE307"/>
	</vehicle>
	<vehicle depart="996.14" departLane="free" departSpeed="max" id="23947" type="HV">
		<route edges="genE316 genE297"/>
	</vehicle>
	<vehicle depart="1047.24" departLane="free" departSpeed="max" id="23878" type="HV">
		<route edges="genE296 genE317"/>
	</vehicle>
	<vehicle depart="1060.3" departLane="free" departSpeed="max" id="23806" type="HV">
		<route edges="genE296 genE307"/>
	</vehicle>
	<vehicle depart="1071.88" departLane="free" departSpeed="max" id="23921" type="HV">
		<route edges="genE316 genE297"/>
	</vehicle>
	<vehicle depart="1077.69" departLane="free" departSpeed="max" id="23822" type="CV">
		<route edges="genE296 genE307"/>
	</vehicle>
	<vehicle depart="1077.98" departLane="free" departSpeed="max" id="23844" type="HV">
		<route edges="genE296 genE307"/>
	</vehicle>
	<vehicle depart="1078.83" departLane="free" departSpeed="max" id="23898" type="HV">
		<route edges="genE296 genE317"/>
	</vehicle>
	<vehicle depart="1092.95" departLane="free" departSpeed="max" id="23748" type="HV">
		<route edges="genE318 genE297"/>
	</vehicle>
	<vehicle depart="1096.79" departLane="free" departSpeed="max" id="23948" type="CV">
		<route edges="genE316 genE297"/>
	</vehicle>
	<vehicle depart="1107.56" departLane="free" departSpeed="max" id="23865" type="HV">
		<route edges="genE296 genE317"/>
	</vehicle>
	<vehicle depart="1129.69" departLane="free" departSpeed="max" id="23755" type="HV">
		<route edges="genE318 genE297"/>
	</vehicle>
	<vehicle depart="1151.59" departLane="free" departSpeed="max" id="23953" type="HV">
		<route edges="genE316 genE297"/>
	</vehicle>
	<vehicle depart="1169.14" departLane="free" departSpeed="max" id="23874" type="CV">
		<route edges="genE296 genE317"/>
	</vehicle>
	<vehicle depart="1197.03" departLane="free" departSpeed="max" id="23949" type="HV">
		<route edges="genE316 genE297"/>
	</vehicle>
	<vehicle depart="1202.3" departLane="free" departSpeed="max" id="23979" type="HV">
		<route edges="genE316 genE317"/>
	</vehicle>
	<vehicle depart="1216.32" departLane="free" departSpeed="max" id="23988" type="HV">
		<route edges="genE316 genE317"/>
	</vehicle>
	<vehicle depart="1231.95" departLane="free" departSpeed="max" id="23811" type="CV">
		<route edges="genE296 genE307"/>
	</vehicle>
	<vehicle depart="1260.09" departLane="free" departSpeed="max" id="23880" type="HV">
		<route edges="genE296 genE317"/>
	</vehicle>
	<vehicle depart="1262.28" departLane="free" departSpeed="max" id="23919" type="HV">
		<route edges="genE316 genE297"/>
	</vehicle>
	<vehicle depart="1272.16" departLane="free" departSpeed="max" id="23989" type="HV">
		<route edges="genE316 genE317"/>
	</vehicle>
	<vehicle depart="1273.79" departLane="free" departSpeed="max" id="23784" type="HV">
		<route edges="genE318 genE307"/>
	</vehicle>
	<vehicle depart="1275.15" departLane="free" departSpeed="max" id="23972" type="HV">
		<route edges="genE316 genE317"/>
	</vehicle>
	<vehicle depart="1307.03" departLane="free" departSpeed="max" id="23935" type="HV">
		<route edges="genE316 genE297"/>
	</vehicle>
	<vehicle depart="1345.15" departLane="free" departSpeed="max" id="23833" type="HV">
		<route edges="genE296 genE307"/>
	</vehicle>
	<vehicle depart="1371.45" departLane="free" departSpeed="max" id="23765" type="HV">
		<route edges="genE318 genE307"/>
	</vehicle>
	<vehicle depart="1391.29" departLane="free" departSpeed="max" id="23911" type="HV">
		<route edges="genE316 genE297"/>
	</vehicle>
	<vehicle depart="1396.74" departLane="free" departSpeed="max" id="23938" type="HV">
		<route edges="genE316 genE297"/>
	</vehicle>
	<vehicle depart="1419.99" departLane="free" departSpeed="max" id="23875" type="CV">
		<route edges="genE296 genE317"/>
	</vehicle>
	<vehicle depart="1433.66" departLane="free" departSpeed="max" id="23895" type="HV">
		<route edges="genE296 genE317"/>
	</vehicle>
	<vehicle depart="1450.0" departLane="free" departSpeed="max" id="23752" type="HV">
		<route edges="genE318 genE297"/>
	</vehicle>
	<vehicle depart="1474.94" departLane="free" departSpeed="max" id="23862" type="HV">
		<route edges="genE296 genE317"/>
	</vehicle>
	<vehicle depart="1517.76" departLane="free" departSpeed="max" id="23945" type="HV">
		<route edges="genE316 genE297"/>
	</vehicle>
	<vehicle depart="1517.84" departLane="free" departSpeed="max" id="23916" type="HV">
		<route edges="genE316 genE297"/>
	</vehicle>
	<vehicle depart="1532.54" departLane="free" departSpeed="max" id="23902" type="HV">
		<route edges="genE296 genE317"/>
	</vehicle>
	<vehicle depart="1559.08" departLane="free" departSpeed="max" id="23789" type="HV">
		<route edges="genE318 genE307"/>
	</vehicle>
	<vehicle depart="1567.36" departLane="free" departSpeed="max" id="23974" type="HV">
		<route edges="genE316 genE317"/>
	</vehicle>
	<vehicle depart="1601.67" departLane="free" departSpeed="max" id="23847" type="CV">
		<route edges="genE296 genE307"/>
	</vehicle>
	<vehicle depart="1605.05" departLane="free" departSpeed="max" id="23787" type="HV">
		<route edges="genE318 genE307"/>
	</vehicle>
	<vehicle depart="1610.01" departLane="free" departSpeed="max" id="23809" type="HV">
		<route edges="genE296 genE307"/>
	</vehicle>
	<vehicle depart="1614.78" departLane="free" departSpeed="max" id="23815" type="HV">
		<route edges="genE296 genE307"/>
	</vehicle>
	<vehicle depart="1617.97" departLane="free" departSpeed="max" id="23915" type="HV">
		<route edges="genE316 genE297"/>
	</vehicle>
	<vehicle depart="1621.09" departLane="free" departSpeed="max" id="23886" type="HV">
		<route edges="genE296 genE317"/>
	</vehicle>
	<vehicle depart="1655.55" departLane="free" departSpeed="max" id="23968" type="CV">
		<route edges="genE316 genE317"/>
	</vehicle>
	<vehicle depart="1655.95" departLane="free" departSpeed="max" id="23995" type="HV">
		<route edges="genE316 genE317"/>
	</vehicle>
	<vehicle depart="1704.1" departLane="free" departSpeed="max" id="23939" type="HV">
		<route edges="genE316 genE297"/>
	</vehicle>
	<vehicle depart="1709.8" departLane="free" departSpeed="max" id="23946" type="CV">
		<route edges="genE316 genE297"/>
	</vehicle>
	<vehicle depart="1721.99" departLane="free" departSpeed="max" id="23861" type="HV">
		<route edges="genE296 genE317"/>
	</vehicle>
	<vehicle depart="1736.63" departLane="free" departSpeed="max" id="23741" type="HV">
		<route edges="genE318 genE297"/>
	</vehicle>
	<vehicle depart="1756.76" departLane="free" departSpeed="max" id="23997" type="CV">
		<route edges="genE316 genE317"/>
	</vehicle>
	<vehicle depart="1771.89" departLane="free" departSpeed="max" id="23906" type="CV">
		<route edges="genE316 genE297"/>
	</vehicle>
	<vehicle depart="1785.03" departLane="free" departSpeed="max" id="23759" type="HV">
		<route edges="genE318 genE297"/>
	</vehicle>
	<vehicle depart="1802.88" departLane="free" departSpeed="max" id="23827" type="HV">
		<route edges="genE296 genE307"/>
	</vehicle>
	<vehicle depart="1803.52" departLane="free" departSpeed="max" id="23851" type="HV">
		<route edges="genE296 genE317"/>
	</vehicle>
	<vehicle depart="1806.38" departLane="free" departSpeed="max" id="23910" type="HV">
		<route edges="genE316 genE297"/>
	</vehicle>
	<vehicle depart="1820.84" departLane="free" departSpeed="max" id="23891" type="HV">
		<route edges="genE296 genE317"/>
	</vehicle>
	<vehicle depart="1845.84" departLane="free" departSpeed="max" id="23797" type="HV">
		<route edges="genE318 genE307"/>
	</vehicle>
	<vehicle depart="1849.72" departLane="free" departSpeed="max" id="23969" type="HV">
		<route edges="genE316 genE317"/>
	</vehicle>
	<vehicle depart="1859.72" departLane="free" departSpeed="max" id="23867" type="HV">
		<route edges="genE296 genE317"/>
	</vehicle>
	<vehicle depart="1880.55" departLane="free" departSpeed="max" id="23836" type="CV">
		<route edges="genE296 genE307"/>
	</vehicle>
	<vehicle depart="1881.45" departLane="free" departSpeed="max" id="23990" type="HV">
		<route edges="genE316 genE317"/>
	</vehicle>
	<vehicle depart="1913.07" departLane="free" departSpeed="max" id="23942" type="HV">
		<route edges="genE316 genE297"/>
	</vehicle>
	<vehicle depart="1918.33" departLane="free" departSpeed="max" id="23933" type="HV">
		<route edges="genE316 genE297"/>
	</vehicle>
	<vehicle depart="1933.95" departLane="free" departSpeed="max" id="23826" type="HV">
		<route edges="genE296 genE307"/>
	</vehicle>
	<vehicle depart="1937.82" departLane="free" departSpeed="max" id="23930" type="HV">
		<route edges="genE316 genE297"/>
	</vehicle>
	<vehicle depart="1952.81" departLane="free" departSpeed="max" id="23768" type="HV">
		<route edges="genE318 genE307"/>
	</vehicle>
	<vehicle depart="1952.97" departLane="free" departSpeed="max" id="23965" type="HV">
		<route edges="genE316 genE317"/>
	</vehicle>
	<vehicle depart="1962.58" departLane="free" departSpeed="max" id="23813" type="HV">
		<route edges="genE296 genE307"/>
	</vehicle>
	<vehicle depart="1963.25" departLane="free" departSpeed="max" id="23781" type="HV">
		<route edges="genE318 genE307"/>
	</vehicle>
	<vehicle depart="1968.56" departLane="free" departSpeed="max" id="23750" type="HV">
		<route edges="genE318 genE297"/>
	</vehicle>
	<vehicle depart="1985.76" departLane="free" departSpeed="max" id="23912" type="HV">
		<route edges="genE316 genE297"/>
	</vehicle>
	<vehicle depart="2002.02" departLane="free" departSpeed="max" id="23790" type="HV">
		<route edges="genE318 genE307"/>
	</vehicle>
	<vehicle depart="2014.72" departLane="free" departSpeed="max" id="23831" type="HV">
		<route edges="genE296 genE307"/>
	</vehicle>
	<vehicle depart="2041.37" departLane="free" departSpeed="max" id="23769" type="HV">
		<route edges="genE318 genE307"/>
	</vehicle>
	<vehicle depart="2055.81" departLane="free" departSpeed="max" id="23830" type="HV">
		<route edges="genE296 genE307"/>
	</vehicle>
	<vehicle depart="2056.2" departLane="free" departSpeed="max" id="23927" type="CV">
		<route edges="genE316 genE297"/>
	</vehicle>
	<vehicle depart="2064.04" departLane="free" departSpeed="max" id="23819" type="HV">
		<route edges="genE296 genE307"/>
	</vehicle>
	<vehicle depart="2098.44" departLane="free" departSpeed="max" id="23821" type="CV">
		<route edges="genE296 genE307"/>
	</vehicle>
	<vehicle depart="2142.17" departLane="free" departSpeed="max" id="23749" type="HV">
		<route edges="genE318 genE297"/>
	</vehicle>
	<vehicle depart="2149.06" departLane="free" departSpeed="max" id="23817" type="HV">
		<route edges="genE296 genE307"/>
	</vehicle>
	<vehicle depart="2159.56" departLane="free" departSpeed="max" id="23856" type="HV">
		<route edges="genE296 genE317"/>
	</vehicle>
	<vehicle depart="2189.46" departLane="free" departSpeed="max" id="23929" type="HV">
		<route edges="genE316 genE297"/>
	</vehicle>
	<vehicle depart="2205.42" departLane="free" departSpeed="max" id="23854" type="HV">
		<route edges="genE296 genE317"/>
	</vehicle>
	<vehicle depart="2220.8" departLane="free" departSpeed="max" id="23884" type="HV">
		<route edges="genE296 genE317"/>
	</vehicle>
	<vehicle depart="2220.94" departLane="free" departSpeed="max" id="23959" type="HV">
		<route edges="genE316 genE317"/>
	</vehicle>
	<vehicle depart="2227.1" departLane="free" departSpeed="max" id="23791" type="HV">
		<route edges="genE318 genE307"/>
	</vehicle>
	<vehicle depart="2249.45" departLane="free" departSpeed="max" id="23871" type="CV">
		<route edges="genE296 genE317"/>
	</vehicle>
	<vehicle depart="2254.41" departLane="free" departSpeed="max" id="23960" type="HV">
		<route edges="genE316 genE317"/>
	</vehicle>
	<vehicle depart="2283.6" departLane="free" departSpeed="max" id="23904" type="HV">
		<route edges="genE316 genE297"/>
	</vehicle>
	<vehicle depart="2288.73" departLane="free" departSpeed="max" id="23805" type="HV">
		<route edges="genE296 genE307"/>
	</vehicle>
	<vehicle depart="2297.63" departLane="free" departSpeed="max" id="23841" type="HV">
		<route edges="genE296 genE307"/>
	</vehicle>
	<vehicle depart="2313.22" departLane="free" departSpeed="max" id="23896" type="HV">
		<route edges="genE296 genE317"/>
	</vehicle>
	<vehicle depart="2328.12" departLane="free" departSpeed="max" id="23802" type="HV">
		<route edges="genE296 genE307"/>
	</vehicle>
	<vehicle depart="2336.63" departLane="free" departSpeed="max" id="23829" type="HV">
		<route edges="genE296 genE307"/>
	</vehicle>
	<vehicle depart="2361.78" departLane="free" departSpeed="max" id="23940" type="CV">
		<route edges="genE316 genE297"/>
	</vehicle>
	<vehicle depart="2365.73" departLane="free" departSpeed="max" id="23984" type="HV">
		<route edges="genE316 genE317"/>
	</vehicle>
	<vehicle depart="2376.18" departLane="free" departSpeed="max" id="23934" type="HV">
		<route edges="genE316 genE297"/>
	</vehicle>
	<vehicle depart="2376.33" departLane="free" departSpeed="max" id="23832" type="CV">
		<route edges="genE296 genE307"/>
	</vehicle>
	<vehicle depart="2385.23" departLane="free" departSpeed="max" id="23961" type="HV">
		<route edges="genE316 genE317"/>
	</vehicle>
	<vehicle depart="2396.28" departLane="free" departSpeed="max" id="23887" type="HV">
		<route edges="genE296 genE317"/>
	</vehicle>
	<vehicle depart="2401.02" departLane="free" departSpeed="max" id="23785" type="HV">
		<route edges="genE318 genE307"/>
	</vehicle>
	<vehicle depart="2430.37" departLane="free" departSpeed="max" id="23982" type="HV">
		<route edges="genE316 genE317"/>
	</vehicle>
	<vehicle depart="2430.69" departLane="free" departSpeed="max" id="23958" type="CV">
		<route edges="genE316 genE317"/>
	</vehicle>
	<vehicle depart="2453.13" departLane="free" departSpeed="max" id="23967" type="HV">
		<route edges="genE316 genE317"/>
	</vehicle>
	<vehicle depart="2456.27" departLane="free" departSpeed="max" id="23987" type="HV">
		<route edges="genE316 genE317"/>
	</vehicle>
	<vehicle depart="2477.34" departLane="free" departSpeed="max" id="23853" type="HV">
		<route edges="genE296 genE317"/>
	</vehicle>
	<vehicle depart="2497.71" departLane="free" departSpeed="max" id="23762" type="HV">
		<route edges="genE318 genE297"/>
	</vehicle>
	<vehicle depart="2524.23" departLane="free" departSpeed="max" id="23963" type="HV">
		<route edges="genE316 genE317"/>
	</vehicle>
	<vehicle depart="2581.96" departLane="free" departSpeed="max" id="23843" type="CV">
		<route edges="genE296 genE307"/>
	</vehicle>
	<vehicle depart="2592.82" departLane="free" departSpeed="max" id="23869" type="HV">
		<route edges="genE296 genE317"/>
	</vehicle>
	<vehicle depart="2604.79" departLane="free" departSpeed="max" id="23936" type="HV">
		<route edges="genE316 genE297"/>
	</vehicle>
	<vehicle depart="2615.08" departLane="free" departSpeed="max" id="23883" type="CV">
		<route edges="genE296 genE317"/>
	</vehicle>
	<vehicle depart="2693.35" departLane="free" departSpeed="max" id="23931" type="CV">
		<route edges="genE316 genE297"/>
	</vehicle>
	<vehicle depart="2694.15" departLane="free" departSpeed="max" id="23788" type="HV">
		<route edges="genE318 genE307"/>
	</vehicle>
	<vehicle depart="2709.13" departLane="free" departSpeed="max" id="23932" type="CV">
		<route edges="genE316 genE297"/>
	</vehicle>
	<vehicle depart="2712.61" departLane="free" departSpeed="max" id="23857" type="CV">
		<route edges="genE296 genE317"/>
	</vehicle>
	<vehicle depart="2740.83" departLane="free" departSpeed="max" id="23864" type="HV">
		<route edges="genE296 genE317"/>
	</vehicle>
	<vehicle depart="2741.75" departLane="free" departSpeed="max" id="23903" type="HV">
		<route edges="genE316 genE297"/>
	</vehicle>
	<vehicle depart="2765.14" departLane="free" departSpeed="max" id="23928" type="HV">
		<route edges="genE316 genE297"/>
	</vehicle>
	<vehicle depart="2776.83" departLane="free" departSpeed="max" id="23778" type="CV">
		<route edges="genE318 genE307"/>
	</vehicle>
	<vehicle depart="2783.33" departLane="free" departSpeed="max" id="23966" type="CV">
		<route edges="genE316 genE317"/>
	</vehicle>
	<vehicle depart="2787.46" departLane="free" departSpeed="max" id="23888" type="HV">
		<route edges="genE296 genE317"/>
	</vehicle>
	<vehicle depart="2798.46" departLane="free" departSpeed="max" id="23763" type="HV">
		<route edges="genE318 genE307"/>
	</vehicle>
	<vehicle depart="2809.8" departLane="free" departSpeed="max" id="23956" type="HV">
		<route edges="genE316 genE297"/>
	</vehicle>
	<vehicle depart="2811.23" departLane="free" departSpeed="max" id="23812" type="HV">
		<route edges="genE296 genE307"/>
	</vehicle>
	<vehicle depart="2812.32" departLane="free" departSpeed="max" id="23926" type="HV">
		<route edges="genE316 genE297"/>
	</vehicle>
	<vehicle depart="2817.32" departLane="free" departSpeed="max" id="23863" type="HV">
		<route edges="genE296 genE317"/>
	</vehicle>
	<vehicle depart="2827.88" departLane="free" departSpeed="max" id="23907" type="HV">
		<route edges="genE316 genE297"/>
	</vehicle>
	<vehicle depart="2828.75" departLane="free" departSpeed="max" id="23925" type="CV">
		<route edges="genE316 genE297"/>
	</vehicle>
	<vehicle depart="2854.22" departLane="free" departSpeed="max" id="23992" type="HV">
		<route edges="genE316 genE317"/>
	</vehicle>
	<vehicle depart="2857.62" departLane="free" departSpeed="max" id="23773" type="HV">
		<route edges="genE318 genE307"/>
	</vehicle>
	<vehicle depart="2876.48" departLane="free" departSpeed="max" id="23976" type="HV">
		<route edges="genE316 genE317"/>
	</vehicle>
	<vehicle depart="2893.34" departLane="free" departSpeed="max" id="23860" type="HV">
		<route edges="genE296 genE317"/>
	</vehicle>
	<vehicle depart="2899.08" departLane="free" departSpeed="max" id="23954" type="HV">
		<route edges="genE316 genE297"/>
	</vehicle>
	<vehicle depart="2905.4" departLane="free" departSpeed="max" id="23770" type="HV">
		<route edges="genE318 genE307"/>
	</vehicle>
	<vehicle depart="2925.47" departLane="free" departSpeed="max" id="23980" type="HV">
		<route edges="genE316 genE317"/>
	</vehicle>
	<vehicle depart="2929.5" departLane="free" departSpeed="max" id="23839" type="HV">
		<route edges="genE296 genE307"/>
	</vehicle>
	<vehicle depart="2931.1" departLane="free" departSpeed="max" id="23858" type="HV">
		<route edges="genE296 genE317"/>
	</vehicle>
	<vehicle depart="2939.57" departLane="free" departSpeed="max" id="23764" type="HV">
		<route edges="genE318 genE307"/>
	</vehicle>
	<vehicle depart="2963.95" departLane="free" departSpeed="max" id="23924" type="HV">
		<route edges="genE316 genE297"/>
	</vehicle>
	<vehicle depart="2964.11" departLane="free" departSpeed="max" id="23852" type="HV">
		<route edges="genE296 genE317"/>
	</vehicle>
	<vehicle depart="2969.59" departLane="free" departSpeed="max" id="23751" type="CV">
		<route edges="genE318 genE297"/>
	</vehicle>
	<vehicle depart="2997.13" departLane="free" departSpeed="max" id="23777" type="HV">
		<route edges="genE318 genE307"/>
	</vehicle>
	<vehicle depart="3007.72" departLane="free" departSpeed="max" id="23793" type="HV">
		<route edges="genE318 genE307"/>
	</vehicle>
	<vehicle depart="3039.97" departLane="free" departSpeed="max" id="23962" type="CV">
		<route edges="genE316 genE317"/>
	</vehicle>
	<vehicle depart="3053.92" departLane="free" departSpeed="max" id="23767" type="HV">
		<route edges="genE318 genE307"/>
	</vehicle>
	<vehicle depart="3067.87" departLane="free" departSpeed="max" id="23761" type="CV">
		<route edges="genE318 genE297"/>
	</vehicle>
	<vehicle depart="3111.87" departLane="free" departSpeed="max" id="23758" type="HV">
		<route edges="genE318 genE297"/>
	</vehicle>