<?xml version="1.0" ?>
<routes>
	<vType accel="0.8" decel="4.5" id="CV" length="5" maxSpeed="45" sigma="0.5"/>
	<vType accel="0.8" decel="4.5" id="HV" length="5" maxSpeed="40" sigma="0.5"/>
	<vehicle depart="2.83" departLane="free" departSpeed="max" id="282" type="HV">
		<route edges="genE318 genE307"/>
	</vehicle>
	<vehicle depart="4.77" departLane="free" departSpeed="max" id="515" type="HV">
		<route edges="genE316 genE317"/>
	</vehicle>
	<vehicle depart="12.93" departLane="free" departSpeed="max" id="317" type="CV">
		<route edges="genE296 genE307"/>
	</vehicle>
	<vehicle depart="19.61" departLane="free" departSpeed="max" id="410" type="HV">
		<route edges="genE296 genE317"/>
	</vehicle>
	<vehicle depart="23.05" departLane="free" departSpeed="max" id="389" type="CV">
		<route edges="genE296 genE317"/>
	</vehicle>
	<vehicle depart="77.89" departLane="free" departSpeed="max" id="416" type="HV">
		<route edges="genE296 genE317"/>
	</vehicle>
	<vehicle depart="90.56" departLane="free" departSpeed="max" id="372" type="HV">
		<route edges="genE296 genE317"/>
	</vehicle>
	<vehicle depart="105.18" departLane="free" departSpeed="max" id="504" type="HV">
		<route edges="genE316 genE317"/>
	</vehicle>
	<vehicle depart="106.94" departLane="free" departSpeed="max" id="397" type="HV">
		<route edges="genE296 genE317"/>
	</vehicle>
	<vehicle depart="182.42" departLane="free" departSpeed="max" id="454" type="HV">
		<route edges="genE316 genE297"/>
	</vehicle>
	<vehicle depart="200.43" departLane="free" departSpeed="max" id="499" type="HV">
		<route edges="genE316 genE317"/>
	</vehicle>
	<vehicle depart="201.49" departLane="free" departSpeed="max" id="480" type="CV">
		<route edges="genE316 genE317"/>
	</vehicle>
	<vehicle depart="208.04" departLane="free" departSpeed="max" id="332" type="CV">
		<route edges="genE296 genE307"/>
	</vehicle>
	<vehicle depart="220.27" departLane="free" departSpeed="max" id="399" type="HV">
		<route edges="genE296 genE317"/>
	</vehicle>
	<vehicle depart="220.65" departLane="free" departSpeed="max" id="407" type="HV">
		<route edges="genE296 genE317"/>
	</vehicle>
	<vehicle depart="224.07" departLane="free" departSpeed="max" id="361" type="CV">
		<route edges="genE296 genE307"/>
	</vehicle>
	<vehicle depart="235.68" departLane="free" departSpeed="max" id="257" type="HV">
		<route edges="genE318 genE297"/>
	</vehicle>
	<vehicle depart="243.94" departLane="free" departSpeed="max" id="507" type="CV">
		<route edges="genE316 genE317"/>
	</vehicle>
	<vehicle depart="244.16" departLane="free" departSpeed="max" id="273" type="HV">
		<route edges="genE318 genE297"/>
	</vehicle>
	<vehicle depart="260.97" departLane="free" departSpeed="max" id="419" type="HV">
		<route edges="genE316 genE297"/>
	</vehicle>
	<vehicle depart="272.92" departLane="free" departSpeed="max" id="498" type="HV">
		<route edges="genE316 genE317"/>
	</vehicle>
	<vehicle depart="276.27" departLane="free" departSpeed="max" id="401" type="HV">
		<route edges="genE296 genE317"/>
	</vehicle>
	<vehicle depart="280.53" departLane="free" departSpeed="max" id="355" type="HV">
		<route edges="genE296 genE307"/>
	</vehicle>
	<vehicle depart="314.38" departLane="free" departSpeed="max" id="411" type="HV">
		<route edges="genE296 genE317"/>
	</vehicle>
	<vehicle depart="320.66" departLane="free" departSpeed="max" id="325" type="CV">
		<route edges="genE296 genE307"/>
	</vehicle>
	<vehicle depart="327.86" departLane="free" departSpeed="max" id="342" type="HV">
		<route edges="genE296 genE307"/>
	</vehicle>
	<vehicle depart="331.23" departLane="free" departSpeed="max" id="398" type="HV">
		<route edges="genE296 genE317"/>
	</vehicle>
	<vehicle depart="368.31" departLane="free" departSpeed="max" id="391" type="HV">
		<route edges="genE296 genE317"/>
	</vehicle>
	<vehicle depart="379.67" departLane="free" departSpeed="max" id="477" type="CV">
		<route edges="genE316 genE317"/>
	</vehicle>
	<vehicle depart="382.07" departLane="free" departSpeed="max" id="349" type="HV">
		<route edges="genE296 genE307"/>
	</vehicle>
	<vehicle depart="393.73" departLane="free" departSpeed="max" id="402" type="HV">
		<route edges="genE296 genE317"/>
	</vehicle>
	<vehicle depart="396.42" departLane="free" departSpeed="max" id="444" type="HV">
		<route edges="genE316 genE297"/>
	</vehicle>
	<vehicle depart="409.79" departLane="free" departSpeed="max" id="441" type="HV">
		<route edges="genE316 genE297"/>
	</vehicle>
	<vehicle depart="422.38" departLane="free" departSpeed="max" id="298" type="CV">
		<route edges="genE318 genE307"/>
	</vehicle>
	<vehicle depart="425.1" departLane="free" departSpeed="max" id="434" type="HV">
		<route edges="genE316 genE297"/>
	</vehicle>
	<vehicle depart="452.31" departLane="free" departSpeed="max" id="423" type="CV">
		<route edges="genE316 genE297"/>
	</vehicle>
	<vehicle depart="456.61" departLane="free" departSpeed="max" id="442" type="HV">
		<route edges="genE316 genE297"/>
	</vehicle>
	<vehicle depart="461.59" departLane="free" departSpeed="max" id="367" type="CV">
		<route edges="genE296 genE317"/>
	</vehicle>
	<vehicle depart="476.56" departLane="free" departSpeed="max" id="427" type="HV">
		<route edges="genE316 genE297"/>
	</vehicle>
	<vehicle depart="479.31" departLane="free" departSpeed="max" id="371" type="CV">
		<route edges="genE296 genE317"/>
	</vehicle>
	<vehicle depart="490.44" departLane="free" departSpeed="max" id="270" type="HV">
		<route edges="genE318 genE297"/>
	</vehicle>
	<vehicle depart="555.79" departLane="free" departSpeed="max" id="473" type="HV">
		<route edges="genE316 genE317"/>
	</vehicle>
	<vehicle depart="573.43" departLane="free" departSpeed="max" id="335" type="HV">
		<route edges="genE296 genE307"/>
	</vehicle>
	<vehicle depart="624.75" departLane="free" departSpeed="max" id="488" type="CV">
		<route edges="genE316 genE317"/>
	</vehicle>
	<vehicle depart="635.18" departLane="free" departSpeed="max" id="392" type="HV">
		<route edges="genE296 genE317"/>
	</vehicle>
	<vehicle depart="643.2" departLane="free" departSpeed="max" id="472" type="HV">
		<route edges="genE316 genE297"/>
	</vehicle>
	<vehicle depart="662.61" departLane="free" departSpeed="max" id="464" type="HV">
		<route edges="genE316 genE297"/>
	</vehicle>
	<vehicle depart="663.46" departLane="free" departSpeed="max" id="295" type="HV">
		<route edges="genE318 genE307"/>
	</vehicle>
	<vehicle depart="665.77" departLane="free" departSpeed="max" id="292" type="HV">
		<route edges="genE318 genE307"/>
	</vehicle>
	<vehicle depart="666.97" departLane="free" departSpeed="max" id="276" type="CV">
		<route edges="genE318 genE297"/>
	</vehicle>
	<vehicle depart="675.61" departLane="free" departSpeed="max" id="331" type="HV">
		<route edges="genE296 genE307"/>
	</vehicle>
	<vehicle depart="687.79" departLane="free" departSpeed="max" id="469" type="HV">
		<route edges="genE316 genE297"/>
	</vehicle>
	<vehicle depart="698.32" departLane="free" departSpeed="max" id="453" type="HV">
		<route edges="genE316 genE297"/>
	</vehicle>
	<vehicle depart="700.29" departLane="free" departSpeed="max" id="308" type="HV">
		<route edges="genE318 genE307"/>
	</vehicle>
	<vehicle depart="726.2" departLane="free" departSpeed="max" id="426" type="HV">
		<route edges="genE316 genE297"/>
	</vehicle>
	<vehicle depart="726.65" departLane="free" departSpeed="max" id="414" type="HV">
		<route edges="genE296 genE317"/>
	</vehicle>
	<vehicle depart="744.46" departLane="free" departSpeed="max" id="489" type="HV">
		<route edges="genE316 genE317"/>
	</vehicle>
	<vehicle depart="744.62" departLane="free" departSpeed="max" id="333" type="HV">
		<route edges="genE296 genE307"/>
	</vehicle>
	<vehicle depart="761.23" departLane="free" departSpeed="max" id="412" type="HV">
		<route edges="genE296 genE317"/>
	</vehicle>
	<vehicle depart="763.08" departLane="free" departSpeed="max" id="324" type="HV">
		<route edges="genE296 genE307"/>
	</vehicle>
	<vehicle depart="780.76" departLane="free" departSpeed="max" id="376" type="HV">
		<route edges="genE296 genE317"/>
	</vehicle>
	<vehicle depart="799.53" departLane="free" departSpeed="max" id="476" type="HV">
		<route edges="genE316 genE317"/>
	</vehicle>
	<vehicle depart="803.45" departLane="free" departSpeed="max" id="405" type="HV">
		<route edges="genE296 genE317"/>
	</vehicle>
	<vehicle depart="815.52" departLane="free" departSpeed="max" id="513" type="HV">
		<route edges="genE316 genE317"/>
	</vehicle>
	<vehicle depart="837.3" departLane="free" departSpeed="max" id="311" type="HV">
		<route edges="genE318 genE307"/>
	</vehicle>
	<vehicle depart="838.12" departLane="free" departSpeed="max" id="275" type="HV">
		<route edges="genE318 genE297"/>
	</vehicle>
	<vehicle depart="840.96" departLane="free" departSpeed="max" id="468" type="HV">
		<route edges="genE316 genE297"/>
	</vehicle>
	<vehicle depart="861.23" departLane="free" departSpeed="max" id="307" type="HV">
		<route edges="genE318 genE307"/>
	</vehicle>
	<vehicle depart="869.73" departLane="free" departSpeed="max" id="271" type="HV">
		<route edges="genE318 genE297"/>
	</vehicle>
	<vehicle depart="870.97" departLane="free" departSpeed="max" id="380" type="HV">
		<route edges="genE296 genE317"/>
	</vehicle>
	<vehicle depart="884.88" departLane="free" departSpeed="max" id="291" type="CV">
		<route edges="genE318 genE307"/>
	</vehicle>
	<vehicle depart="887.94" departLane="free" departSpeed="max" id="336" type="HV">
		<route edges="genE296 genE307"/>
	</vehicle>
	<vehicle depart="898.98" departLane="free" departSpeed="max" id="466" type="HV">
		<route edges="genE316 genE297"/>
	</vehicle>
	<vehicle depart="910.95" departLane="free" departSpeed="max" id="266" type="HV">
		<route edges="genE318 genE297"/>
	</vehicle>
	<vehicle depart="928.89" departLane="free" departSpeed="max" id="487" type="HV">
		<route edges="genE316 genE317"/>
	</vehicle>
	<vehicle depart="941.6" departLane="free" departSpeed="max" id="387" type="HV">
		<route edges="genE296 genE317"/>
	</vehicle>
	<vehicle depart="949.18" departLane="free" departSpeed="max" id="264" type="HV">
		<route edges="genE318 genE297"/>
	</vehicle>
	<vehicle depart="954.16" departLane="free" departSpeed="max" id="327" type="HV">
		<route edges="genE296 genE307"/>
	</vehicle>
	<vehicle depart="971.03" departLane="free" departSpeed="max" id="431" type="HV">
		<route edges="genE316 genE297"/>
	</vehicle>
	<vehicle depart="1002.62" departLane="free" departSpeed="max" id="362" type="CV">
		<route edges="genE296 genE307"/>
	</vehicle>
	<vehicle depart="1006.7" departLane="free" departSpeed="max" id="277" type="HV">
		<route edges="genE318 genE297"/>
	</vehicle>
	<vehicle depart="1010.94" departLane="free" departSpeed="max" id="495" type="HV">
		<route edges="genE316 genE317"/>
	</vehicle>
	<vehicle depart="1032.88" departLane="free" departSpeed="max" id="377" type="HV">
		<route edges="genE296 genE317"/>
	</vehicle>
	<vehicle depart="1038.14" departLane="free" departSpeed="max" id="506" type="HV">
		<route edges="genE316 genE317"/>
	</vehicle>
	<vehicle depart="1055.06" departLane="free" departSpeed="max" id="356" type="HV">
		<route edges="genE296 genE307"/>
	</vehicle>
	<vehicle depart="1055.55" departLane="free" departSpeed="max" id="503" type="CV">
		<route edges="genE316 genE317"/>
	</vehicle>
	<vehicle depart="1073.38" departLane="free" departSpeed="max" id="491" type="HV">
		<route edges="genE316 genE317"/>
	</vehicle>
	<vehicle depart="1094.1" departLane="free" departSpeed="max" id="463" type="CV">
		<route edges="genE316 genE297"/>
	</vehicle>
	<vehicle depart="1108.54" departLane="free" departSpeed="max" id="318" type="HV">
		<route edges="genE296 genE307"/>
	</vehicle>
	<vehicle depart="1114.21" departLane="free" departSpeed="max" id="440" type="HV">
		<route edges="genE316 genE297"/>
	</vehicle>
	<vehicle depart="1129.48" departLane="free" departSpeed="max" id="403" type="HV">
		<route edges="genE296 genE317"/>
	</vehicle>
	<vehicle depart="1132.57" departLane="free" departSpeed="max" id="470" type="CV">
		<route edges="genE316 genE297"/>
	</vehicle>
	<vehicle depart="1144.44" departLane="free" departSpeed="max" id="297" type="HV">
		<route edges="genE318 genE307"/>
	</vehicle>
	<vehicle depart="1151.3" departLane="free" departSpeed="max" id="285" type="CV">
		<route edges="genE318 genE307"/>
	</vehicle>
	<vehicle depart="1179.2" departLane="free" departSpeed="max" id="328" type="HV">
		<route edges="genE296 genE307"/>
	</vehicle>
	<vehicle depart="1184.93" departLane="free" departSpeed="max" id="484" type="HV">
		<route edges="genE316 genE317"/>
	</vehicle>
	<vehicle depart="1188.37" departLane="free" departSpeed="max" id="455" type="HV">
		<route edges="genE316 genE297"/>
	</vehicle>
	<vehicle depart="1198.43" departLane="free" departSpeed="max" id="505" type="HV">
		<route edges="genE316 genE317"/>
	</vehicle>
	<vehicle depart="1225.03" departLane="free" departSpeed="max" id="502" type="CV">
		<route edges="genE316 genE317"/>
	</vehicle>
	<vehicle depart="1229.91" departLane="free" departSpeed="max" id="316" type="HV">
		<route edges="genE318 genE307"/>
	</vehicle>
	<vehicle depart="1274.04" departLane="free" departSpeed="max" id="494" type="HV">
		<route edges="genE316 genE317"/>
	</vehicle>
	<vehicle depart="1278.79" departLane="free" departSpeed="max" id="268" type="HV">
		<route edges="genE318 genE297"/>
	</vehicle>
	<vehicle depart="1305.07" departLane="free" departSpeed="max" id="467" type="CV">
		<route edges="genE316 genE297"/>
	</vehicle>
	<vehicle depart="1332.86" departLane="free" departSpeed="max" id="457" type="HV">
		<route edges="genE316 genE297"/>
	</vehicle>
	<vehicle depart="1335.69" departLane="free" departSpeed="max" id="329" type="CV">
		<route edges="genE296 genE307"/>
	</vehicle>
	<vehicle depart="1349.58" departLane="free" departSpeed="max" id="486" type="HV">
		<route edges="genE316 genE317"/>
	</vehicle>
	<vehicle depart="1378.16" departLane="free" departSpeed="max" id="508" type="HV">
		<route edges="genE316 genE317"/>
	</vehicle>
	<vehicle depart="1394.65" departLane="free" departSpeed="max" id="301" type="CV">
		<route edges="genE318 genE307"/>
	</vehicle>
	<vehicle depart="1406.14" departLane="free" departSpeed="max" id="421" type="HV">
		<route edges="genE316 genE297"/>
	</vehicle>
	<vehicle depart="1454.2" departLane="free" departSpeed="max" id="326" type="HV">
		<route edges="genE296 genE307"/>
	</vehicle>
	<vehicle depart="1465.76" departLane="free" departSpeed="max" id="430" type="HV">
		<route edges="genE316 genE297"/>
	</vehicle>
	<vehicle depart="1473.07" departLane="free" departSpeed="max" id="358" type="HV">
		<route edges="genE296 genE307"/>
	</vehicle>
	<vehicle depart="1476.93" departLane="free" departSpeed="max" id="334" type="HV">
		<route edges="genE296 genE307"/>
	</vehicle>
	<vehicle depart="1555.06" departLane="free" departSpeed="max" id="514" type="HV">
		<route edges="genE316 genE317"/>
	</vehicle>
	<vehicle depart="1583.9" departLane="free" departSpeed="max" id="343" type="HV">
		<route edges="genE296 genE307"/>
	</vehicle>
	<vehicle depart="1584.35" departLane="free" departSpeed="max" id="382" type="CV">
		<route edges="genE296 genE317"/>
	</vehicle>
	<vehicle depart="1614.82" departLane="free" departSpeed="max" id="415" type="HV">
		<route edges="genE296 genE317"/>
	</vehicle>
	<vehicle depart="1620.17" departLane="free" departSpeed="max" id="383" type="HV">
		<route edges="genE296 genE317"/>
	</vehicle>
	<vehicle depart="1630.65" departLane="free" departSpeed="max" id="395" type="CV">
		<route edges="genE296 genE317"/>
	</vehicle>
	<vehicle depart="1641.62" departLane="free" departSpeed="max" id="452" type="CV">
		<route edges="genE316 genE297"/>
	</vehicle>
	<vehicle depart="1664.02" departLane="free" departSpeed="max" id="263" type="HV">
		<route edges="genE318 genE297"/>
	</vehicle>
	<vehicle depart="1679.21" departLane="free" departSpeed="max" id="293" type="HV">
		<route edges="genE318 genE307"/>
	</vehicle>
	<vehicle depart="1689.25" departLane="free" departSpeed="max" id="400" type="HV">
		<route edges="genE296 genE317"/>
	</vehicle>
	<vehicle depart="1712.64" departLane="free" departSpeed="max" id="449" type="HV">
		<route edges="genE316 genE297"/>
	</vehicle>
	<vehicle depart="1727.07" departLane="free" departSpeed="max" id="450" type="HV">
		<route edges="genE316 genE297"/>
	</vehicle>
	<vehicle depart="1734.61" departLane="free" departSpeed="max" id="296" type="CV">
		<route edges="genE318 genE307"/>
	</vehicle>
	<vehicle depart="1743.04" departLane="free" departSpeed="max" id="288" type="HV">
		<route edges="genE318 genE307"/>
	</vehicle>
	<vehicle depart="1762.21" departLane="free" departSpeed="max" id="303" type="HV">
		<route edges="genE318 genE307"/>
	</vehicle>
	<vehicle depart="1782.15" departLane="free" departSpeed="max" id="337" type="CV">
		<route edges="genE296 genE307"/>
	</vehicle>
	<vehicle depart="1806.06" departLane="free" departSpeed="max" id="445" type="HV">
		<route edges="genE316 genE297"/>
	</vehicle>
	<vehicle depart="1816.96" departLane="free" departSpeed="max" id="360" type="HV">
		<route edges="genE296 genE307"/>
	</vehicle>
	<vehicle depart="1827.45" departLane="free" departSpeed="max" id="388" type="HV">
		<route edges="genE296 genE317"/>
	</vehicle>
	<vehicle depart="1835.1" departLane="free" departSpeed="max" id="314" type="HV">
		<route edges="genE318 genE307"/>
	</vehicle>
	<vehicle depart="1836.13" departLane="free" departSpeed="max" id="354" type="HV">
		<route edges="genE296 genE307"/>
	</vehicle>
	<vehicle depart="1840.44" departLane="free" departSpeed="max" id="451" type="HV">
		<route edges="genE316 genE297"/>
	</vehicle>
	<vehicle depart="1841.56" departLane="free" departSpeed="max" id="322" type="HV">
		<route edges="genE296 genE307"/>
	</vehicle>
	<vehicle depart="1902.63" departLane="free" departSpeed="max" id="509" type="HV">
		<route edges="genE316 genE317"/>
	</vehicle>
	<vehicle depart="1923.5" departLane="free" departSpeed="max" id="446" type="HV">
		<route edges="genE316 genE297"/>
	</vehicle>
	<vehicle depart="1944.09" departLane="free" departSpeed="max" id="396" type="HV">
		<route edges="genE296 genE317"/>
	</vehicle>
	<vehicle depart="1954.95" departLane="free" departSpeed="max" id="280" type="HV">
		<route edges="genE318 genE307"/>
	</vehicle>
	<vehicle depart="1995.57" departLane="free" departSpeed="max" id="346" type="HV">
		<route edges="genE296 genE307"/>
	</vehicle>
	<vehicle depart="2079.27" departLane="free" departSpeed="max" id="347" type="HV">
		<route edges="genE296 genE307"/>
	</vehicle>
	<vehicle depart="2090.7" departLane="free" departSpeed="max" id="286" type="HV">
		<route edges="genE318 genE307"/>
	</vehicle>
	<vehicle depart="2108.2" departLane="free" departSpeed="max" id="428" type="HV">
		<route edges="genE316 genE297"/>
	</vehicle>
	<vehicle depart="2110.01" departLane="free" departSpeed="max" id="374" type="CV">
		<route edges="genE296 genE317"/>
	</vehicle>
	<vehicle depart="2134.26" departLane="free" departSpeed="max" id="304" type="HV">
		<route edges="genE318 genE307"/>
	</vehicle>
	<vehicle depart="2136.58" departLane="free" departSpeed="max" id="279" type="HV">
		<route edges="genE318 genE307"/>
	</vehicle>
	<vehicle depart="2150.38" departLane="free" departSpeed="max" id="284" type="HV">
		<route edges="genE318 genE307"/>
	</vehicle>
	<vehicle depart="2155.81" departLane="free" departSpeed="max" id="510" type="HV">
		<route edges="genE316 genE317"/>
	</vehicle>
	<vehicle depart="2194.36" departLane="free" departSpeed="max" id="475" type="HV">
		<route edges="genE316 genE317"/>
	</vehicle>
	<vehicle depart="2205.11" departLane="free" departSpeed="max" id="478" type="HV">
		<route edges="genE316 genE317"/>
	</vehicle>
	<vehicle depart="2215.66" departLane="free" departSpeed="max" id="370" type="HV">
		<route edges="genE296 genE317"/>
	</vehicle>
	<vehicle depart="2253.48" departLane="free" departSpeed="max" id="302" type="HV">
		<route edges="genE318 genE307"/>
	</vehicle>
	<vehicle depart="2267.71" departLane="free" departSpeed="max" id="350" type="CV">
		<route edges="genE296 genE307"/>
	</vehicle>
	<vehicle depart="2285.33" departLane="free" departSpeed="max" id="359" type="HV">
		<route edges="genE296 genE307"/>
	</vehicle>
	<vehicle depart="2298.14" departLane="free" departSpeed="max" id="365" type="HV">
		<route edges="genE296 genE307"/>
	</vehicle>
	<vehicle depart="2315.13" departLane="free" departSpeed="max" id="259" type="CV">
		<route edges="genE318 genE297"/>
	</vehicle>
	<vehicle depart="2344.55" departLane="free" departSpeed="max" id="435" type="HV">
		<route edges="genE316 genE297"/>
	</vehicle>
	<vehicle depart="2354.88" departLane="free" departSpeed="max" id="323" type="HV">
		<route edges="genE296 genE307"/>
	</vehicle>
	<vehicle depart="2386.33" departLane="free" departSpeed="max" id="357" type="HV">
		<route edges="genE296 genE307"/>
	</vehicle>
	<vehicle depart="2386.99" departLane="free" departSpeed="max" id="379" type="HV">
		<route edges="genE296 genE317"/>
	</vehicle>
	<vehicle depart="2402.41" departLane="free" departSpeed="max" id="393" type="HV">
		<route edges="genE296 genE317"/>
	</vehicle>
	<vehicle depart="2403.47" departLane="free" departSpeed="max" id="267" type="HV">
		<route edges="genE318 genE297"/>
	</vehicle>
	<vehicle depart="2408.39" departLane="free" departSpeed="max" id="447" type="HV">
		<route edges="genE316 genE297"/>
	</vehicle>
	<vehicle depart="2414.93" departLane="free" departSpeed="max" id="348" type="CV">
		<route edges="genE296 genE307"/>
	</vehicle>
	<vehicle depart="2417.87" departLane="free" departSpeed="max" id="420" type="CV">
		<route edges="genE316 genE297"/>
	</vehicle>
	<vehicle depart="2418.54" departLane="free" departSpeed="max" id="274" type="CV">
		<route edges="genE318 genE297"/>
	</vehicle>
	<vehicle depart="2430.78" departLane="free" departSpeed="max" id="261" type="HV">
		<route edges="genE318 genE297"/>
	</vehicle>
	<vehicle depart="2431.34" departLane="free" departSpeed="max" id="319" type="HV">
		<route edges="genE296 genE307"/>
	</vehicle>
	<vehicle depart="2467.76" departLane="free" departSpeed="max" id="385" type="HV">
		<route edges="genE296 genE317"/>
	</vehicle>
	<vehicle depart="2469.99" departLane="free" departSpeed="max" id="299" type="HV">
		<route edges="genE318 genE307"/>
	</vehicle>
	<vehicle depart="2485.71" departLane="free" departSpeed="max" id="458" type="HV">
		<route edges="genE316 genE297"/>
	</vehicle>
	<vehicle depart="2488.79" departLane="free" departSpeed="max" id="483" type="HV">
		<route edges="genE316 genE317"/>
	</vehicle>
	<vehicle depart="2494.28" departLane="free" departSpeed="max" id="262" type="HV">
		<route edges="genE318 genE297"/>
	</vehicle>
	<vehicle depart="2516.03" departLane="free" departSpeed="max" id="496" type="HV">
		<route edges="genE316 genE317"/>
	</vehicle>
	<vehicle depart="2541.66" departLane="free" departSpeed="max" id="300" type="CV">
		<route edges="genE318 genE307"/>
	</vehicle>
	<vehicle depart="2547.6" departLane="free" departSpeed="max" id="443" type="HV">
		<route edges="genE316 genE297"/>
	</vehicle>
	<vehicle depart="2555.69" departLane="free" departSpeed="max" id="436" type="HV">
		<route edges="genE316 genE297"/>
	</vehicle>
	<vehicle depart="2560.31" departLane="free" departSpeed="max" id="413" type="CV">
		<route edges="genE296 genE317"/>
	</vehicle>
	<vehicle depart="2561.88" departLane="free" departSpeed="max" id="482" type="HV">
		<route edges="genE316 genE317"/>
	</vehicle>
	<vehicle depart="2575.26" departLane="free" departSpeed="max" id="439" type="HV">
		<route edges="genE316 genE297"/>
	</vehicle>
	<vehicle depart="2579.81" departLane="free" departSpeed="max" id="438" type="HV">
		<route edges="genE316 genE297"/>
	</vehicle>
	<vehicle depart="2582.75" departLane="free" departSpeed="max" id="479" type="HV">
		<route edges="genE316 genE317"/>
	</vehicle>
	<vehicle depart="2583.69" departLane="free" departSpeed="max" id="339" type="HV">
		<route edges="genE296 genE307"/>
	</vehicle>
	<vehicle depart="2592.89" departLane="free" departSpeed="max" id="312" type="HV">
		<route edges="genE318 genE307"/>
	</vehicle>
	<vehicle depart="2620.57" departLane="free" departSpeed="max" id="490" type="CV">
		<route edges="genE316 genE317"/>
	</vehicle>
	<vehicle depart="2634.01" departLane="free" departSpeed="max" id="417" type="HV">
		<route edges="genE296 genE317"/>
	</vehicle>
	<vehicle depart="2637.52" departLane="free" departSpeed="max" id="320" type="HV">
		<route edges="genE296 genE307"/>
	</vehicle>
	<vehicle depart="2638.81" departLane="free" departSpeed="max" id="368" type="HV">
		<route edges="genE296 genE317"/>
	</vehicle>
	<vehicle depart="2652.04" departLane="free" departSpeed="max" id="386" type="HV">
		<route edges="genE296 genE317"/>
	</vehicle>
	<vehicle depart="2660.26" departLane="free" departSpeed="max" id="462" type="HV">
		<route edges="genE316 genE297"/>
	</vehicle>
	<vehicle depart="2686.52" departLane="free" departSpeed="max" id="404" type="HV">
		<route edges="genE296 genE317"/>
	</vehicle>
	<vehicle depart="2690.21" departLane="free" departSpeed="max" id="321" type="HV">
		<route edges="genE296 genE307"/>
	</vehicle>
	<vehicle depart="2691.76" departLane="free" departSpeed="max" id="287" type="CV">
		<route edges="genE318 genE307"/>
	</vehicle>
	<vehicle depart="2693.17" departLane="free" departSpeed="max" id="310" type="HV">
		<route edges="genE318 genE307"/>
	</vehicle>
	<vehicle depart="2705.77" departLane="free" departSpeed="max" id="500" type="HV">
		<route edges="genE316 genE317"/>
	</vehicle>
	<vehicle depart="2717.25" departLane="free" departSpeed="max" id="512" type="HV">
		<route edges="genE316 genE317"/>
	</vehicle>
	<vehicle depart="2722.51" departLane="free" departSpeed="max" id="456" type="CV">
		<route edges="genE316 genE297"/>
	</vehicle>
	<vehicle depart="2729.9" departLane="free" departSpeed="max" id="429" type="CV">
		<route edges="genE316 genE297"/>
	</vehicle>
	<vehicle depart="2768.2" departLane="free" departSpeed="max" id="425" type="HV">
		<route edges="genE316 genE297"/>
	</vehicle>
	<vehicle depart="2795.82" departLane="free" departSpeed="max" id="369" type="HV">
		<route edges="genE296 genE317"/>
	</vehicle>
	<vehicle depart="2796.63" departLane="free" departSpeed="max" id="381" type="HV">
		<route edges="genE296 genE317"/>
	</vehicle>
	<vehicle depart="2828.21" departLane="free" departSpeed="max" id="315" type="HV">
		<route edges="genE318 genE307"/>
	</vehicle>
	<vehicle depart="2831.69" departLane="free" departSpeed="max" id="465" type="HV">
		<route edges="genE316 genE297"/>
	</vehicle>
	<vehicle depart="2840.9" departLane="free" departSpeed="max" id="493" type="HV">
		<route edges="genE316 genE317"/>
	</vehicle>
	<vehicle depart="2850.68" departLane="free" departSpeed="max" id="309" type="HV">
		<route edges="genE318 genE307"/>
	</vehicle>
	<vehicle depart="2854.7" departLane="free" departSpeed="max" id="390" type="HV">
		<route edges="genE296 genE317"/>
	</vehicle>
	<vehicle depart="2859.12" departLane="free" departSpeed="max" id="272" type="HV">
		<route edges="genE318 genE297"/>
	</vehicle>
	<vehicle depart="2898.37" departLane="free" departSpeed="max" id="461" type="CV">
		<route edges="genE316 genE297"/>
	</vehicle>
	<vehicle depart="2932.15" departLane="free" departSpeed="max" id="306" type="CV">
		<route edges="genE318 genE307"/>
	</vehicle>
	<vehicle depart="2943.29" departLane="free" departSpeed="max" id="260" type="HV">
		<route edges="genE318 genE297"/>
	</vehicle>
	<vehicle depart="2956.56" departLane="free" departSpeed="max" id="511" type="CV">
		<route edges="genE316 genE317"/>
	</vehicle>
	<vehicle depart="2998.05" departLane="free" departSpeed="max" id="471" type="HV">
		<route edges="genE316 genE297"/>
	</vehicle>
	<vehicle depart="3004.63" departLane="free" departSpeed="max" id="289" type="HV">
		<route edges="genE318 genE307"/>
	</vehicle>
	<vehicle depart="3012.32" departLane="free" departSpeed="max" id="269" type="HV">
		<route edges="genE318 genE297"/>
	</vehicle>
	<vehicle depart="3025.03" departLane="free" departSpeed="max" id="448" type="CV">
		<route edges="genE316 genE297"/>
	</vehicle>
	<vehicle depart="3038.75" departLane="free" departSpeed="max" id="338" type="HV">
		<route edges="genE296 genE307"/>
	</vehicle>
	<vehicle depart="3060.08" departLane="free" departSpeed="max" id="281" type="CV">
		<route edges="genE318 genE307"/>
	</vehicle>
	<vehicle depart="3060.92" departLane="free" departSpeed="max" id="437" type="HV">
		<route edges="genE316 genE297"/>
	</vehicle>
	<vehicle depart="3065.26" departLane="free" departSpeed="max" id="344" type="HV">
		<route edges="genE296 genE307"/>
	</vehicle>
	<vehicle depart="3069.26" departLane="free" departSpeed="max" id="313" type="HV">
		<route edges="genE318 genE307"/>
	</vehicle>
	<vehicle depart="3090.36" departLane="free" departSpeed="max" id="290" type="HV">
		<route edges="genE318 genE307"/>
	</vehicle>
	<vehicle depart="3105.57" departLane="free" departSpeed="max" id="492" type="CV">
		<route edges="genE316 genE317"/>
	</vehicle>
	<vehicle depart="3124.59" departLane="free" departSpeed="max" id="497" type="CV">
		<route edges="genE316 genE317"/>
	</vehicle>
	<vehicle depart="3141.88" departLane="free" departSpeed="max" id="283" type="HV">
		<route edges="genE318 genE307"/>
	</vehicle>
	<vehicle depart="3163.41" departLane="free" departSpeed="max" id="485" type="CV">
		<route edges="genE316 genE317"/>
	</vehicle>
	<vehicle depart="3163.48" departLane="free" departSpeed="max" id="378" type="HV">
		<route edges="genE296 genE317"/>
	</vehicle>
	<vehicle depart="3181.81" departLane="free" departSpeed="max" id="340" type="HV">
		<route edges="genE296 genE307"/>
	</vehicle>
	<vehicle depart="3200.33" departLane="free" departSpeed="max" id="459" type="HV">
		<route edges="genE316 genE297"/>
	</vehicle>
	<vehicle depart="3235.57" departLane="free" departSpeed="max" id="278" type="CV">
		<route edges="genE318 genE297"/>
	</vehicle>