<?xml version="1.0" ?>
<routes>
	<vType accel="0.8" decel="4.5" id="CV" length="5" maxSpeed="45" sigma="0.5"/>
	<vType accel="0.8" decel="4.5" id="HV" length="5" maxSpeed="40" sigma="0.5"/>
	<vehicle depart="5.21" departLane="free" departSpeed="max" id="11321" type="HV">
		<route edges="genE318 genE307"/>
	</vehicle>
	<vehicle depart="9.73" departLane="free" departSpeed="max" id="11668" type="HV">
		<route edges="genE296 genE317"/>
	</vehicle>
	<vehicle depart="9.91" departLane="free" departSpeed="max" id="12125" type="HV">
		<route edges="genE316 genE317"/>
	</vehicle>
	<vehicle depart="19.61" departLane="free" departSpeed="max" id="12010" type="CV">
		<route edges="genE316 genE297"/>
	</vehicle>
	<vehicle depart="20.61" departLane="free" departSpeed="max" id="11719" type="HV">
		<route edges="genE296 genE317"/>
	</vehicle>
	<vehicle depart="22.53" departLane="free" departSpeed="max" id="12051" type="HV">
		<route edges="genE316 genE297"/>
	</vehicle>
	<vehicle depart="29.0" departLane="free" departSpeed="max" id="12240" type="HV">
		<route edges="genE316 genE317"/>
	</vehicle>
	<vehicle depart="31.65" departLane="free" departSpeed="max" id="11632" type="HV">
		<route edges="genE296 genE307"/>
	</vehicle>
	<vehicle depart="40.18" departLane="free" departSpeed="max" id="11929" type="HV">
		<route edges="genE316 genE297"/>
	</vehicle>
	<vehicle depart="50.55" departLane="free" departSpeed="max" id="11653" type="HV">
		<route edges="genE296 genE307"/>
	</vehicle>
	<vehicle depart="52.63" departLane="free" departSpeed="max" id="11270" type="HV">
		<route edges="genE318 genE297"/>
	</vehicle>
	<vehicle depart="53.95" departLane="free" departSpeed="max" id="11468" type="HV">
		<route edges="genE296 genE307"/>
	</vehicle>
	<vehicle depart="54.12" departLane="free" departSpeed="max" id="11685" type="HV">
		<route edges="genE296 genE317"/>
	</vehicle>
	<vehicle depart="54.69" departLane="free" departSpeed="max" id="11634" type="HV">
		<route edges="genE296 genE307"/>
	</vehicle>
	<vehicle depart="56.7" departLane="free" departSpeed="max" id="11715" type="HV">
		<route edges="genE296 genE317"/>
	</vehicle>
	<vehicle depart="62.52" departLane="free" departSpeed="max" id="11406" type="HV">
		<route edges="genE318 genE307"/>
	</vehicle>
	<vehicle depart="64.62" departLane="free" departSpeed="max" id="12077" type="CV">
		<route edges="genE316 genE297"/>
	</vehicle>
	<vehicle depart="67.18" departLane="free" departSpeed="max" id="11444" type="HV">
		<route edges="genE318 genE307"/>
	</vehicle>
	<vehicle depart="71.6" departLane="free" departSpeed="max" id="12103" type="HV">
		<route edges="genE316 genE317"/>
	</vehicle>
	<vehicle depart="72.53" departLane="free" departSpeed="max" id="11996" type="CV">
		<route edges="genE316 genE297"/>
	</vehicle>
	<vehicle depart="73.63" departLane="free" departSpeed="max" id="11456" type="HV">
		<route edges="genE318 genE307"/>
	</vehicle>
	<vehicle depart="74.58" departLane="free" departSpeed="max" id="11493" type="HV">
		<route edges="genE296 genE307"/>
	</vehicle>
	<vehicle depart="80.49" departLane="free" departSpeed="max" id="12128" type="HV">
		<route edges="genE316 genE317"/>
	</vehicle>
	<vehicle depart="83.6" departLane="free" departSpeed="max" id="11469" type="HV">
		<route edges="genE296 genE307"/>
	</vehicle>
	<vehicle depart="85.29" departLane="free" departSpeed="max" id="11374" type="CV">
		<route edges="genE318 genE307"/>
	</vehicle>
	<vehicle depart="89.87" departLane="free" departSpeed="max" id="11657" type="HV">
		<route edges="genE296 genE317"/>
	</vehicle>
	<vehicle depart="91.96" departLane="free" departSpeed="max" id="12031" type="HV">
		<route edges="genE316 genE297"/>
	</vehicle>
	<vehicle depart="93.32" departLane="free" departSpeed="max" id="11529" type="HV">
		<route edges="genE296 genE307"/>
	</vehicle>
	<vehicle depart="94.47" departLane="free" departSpeed="max" id="11960" type="HV">
		<route edges="genE316 genE297"/>
	</vehicle>
	<vehicle depart="102.39" departLane="free" departSpeed="max" id="11583" type="HV">
		<route edges="genE296 genE307"/>
	</vehicle>
	<vehicle depart="107.09" departLane="free" departSpeed="max" id="11872" type="HV">
		<route edges="genE316 genE297"/>
	</vehicle>
	<vehicle depart="108.6" departLane="free" departSpeed="max" id="11495" type="HV">
		<route edges="genE296 genE307"/>
	</vehicle>
	<vehicle depart="108.8" departLane="free" departSpeed="max" id="11890" type="HV">
		<route edges="genE316 genE297"/>
	</vehicle>
	<vehicle depart="110.41" departLane="free" departSpeed="max" id="11404" type="CV">
		<route edges="genE318 genE307"/>
	</vehicle>
	<vehicle depart="111.16" departLane="free" departSpeed="max" id="11789" type="HV">
		<route edges="genE296 genE317"/>
	</vehicle>
	<vehicle depart="113.66" departLane="free" departSpeed="max" id="11244" type="CV">
		<route edges="genE318 genE297"/>
	</vehicle>
	<vehicle depart="118.78" departLane="free" departSpeed="max" id="11395" type="CV">
		<route edges="genE318 genE307"/>
	</vehicle>
	<vehicle depart="121.75" departLane="free" departSpeed="max" id="11437" type="HV">
		<route edges="genE318 genE307"/>
	</vehicle>
	<vehicle depart="122.56" departLane="free" departSpeed="max" id="11407" type="HV">
		<route edges="genE318 genE307"/>
	</vehicle>
	<vehicle depart="125.83" departLane="free" departSpeed="max" id="11419" type="HV">
		<route edges="genE318 genE307"/>
	</vehicle>
	<vehicle depart="129.2" departLane="free" departSpeed="max" id="11559" type="HV">
		<route edges="genE296 genE307"/>
	</vehicle>
	<vehicle depart="131.22" departLane="free" departSpeed="max" id="11633" type="HV">
		<route edges="genE296 genE307"/>
	</vehicle>
	<vehicle depart="133.54" departLane="free" departSpeed="max" id="11635" type="HV">
		<route edges="genE296 genE307"/>
	</vehicle>
	<vehicle depart="136.35" departLane="free" departSpeed="max" id="11910" type="HV">
		<route edges="genE316 genE297"/>
	</vehicle>
	<vehicle depart="145.6" departLane="free" departSpeed="max" id="12117" type="HV">
		<route edges="genE316 genE317"/>
	</vehicle>
	<vehicle depart="148.12" departLane="free" departSpeed="max" id="11338" type="CV">
		<route edges="genE318 genE307"/>
	</vehicle>
	<vehicle depart="155.43" departLane="free" departSpeed="max" id="11877" type="HV">
		<route edges="genE316 genE297"/>
	</vehicle>
	<vehicle depart="156.38" departLane="free" departSpeed="max" id="11710" type="HV">
		<route edges="genE296 genE317"/>
	</vehicle>
	<vehicle depart="159.6" departLane="free" departSpeed="max" id="11445" type="HV">
		<route edges="genE318 genE307"/>
	</vehicle>
	<vehicle depart="162.34" departLane="free" departSpeed="max" id="11535" type="HV">
		<route edges="genE296 genE307"/>
	</vehicle>
	<vehicle depart="163.58" departLane="free" departSpeed="max" id="12187" type="HV">
		<route edges="genE316 genE317"/>
	</vehicle>
	<vehicle depart="167.95" departLane="free" departSpeed="max" id="11415" type="HV">
		<route edges="genE318 genE307"/>
	</vehicle>
	<vehicle depart="177.7" departLane="free" departSpeed="max" id="11342" type="CV">
		<route edges="genE318 genE307"/>
	</vehicle>
	<vehicle depart="178.7" departLane="free" departSpeed="max" id="12100" type="HV">
		<route edges="genE316 genE317"/>
	</vehicle>
	<vehicle depart="182.83" departLane="free" departSpeed="max" id="12197" type="HV">
		<route edges="genE316 genE317"/>
	</vehicle>
	<vehicle depart="187.0" departLane="free" departSpeed="max" id="11985" type="CV">
		<route edges="genE316 genE297"/>
	</vehicle>
	<vehicle depart="190.18" departLane="free" departSpeed="max" id="11432" type="HV">
		<route edges="genE318 genE307"/>
	</vehicle>
	<vehicle depart="194.17" departLane="free" departSpeed="max" id="11328" type="HV">
		<route edges="genE318 genE307"/>
	</vehicle>
	<vehicle depart="197.58" departLane="free" departSpeed="max" id="11316" type="HV">
		<route edges="genE318 genE307"/>
	</vehicle>
	<vehicle depart="198.0" departLane="free" departSpeed="max" id="11779" type="CV">
		<route edges="genE296 genE317"/>
	</vehicle>
	<vehicle depart="200.24" departLane="free" departSpeed="max" id="11320" type="HV">
		<route edges="genE318 genE307"/>
	</vehicle>
	<vehicle depart="200.67" departLane="free" departSpeed="max" id="11296" type="CV">
		<route edges="genE318 genE297"/>
	</vehicle>
	<vehicle depart="202.9" departLane="free" departSpeed="max" id="11343" type="CV">
		<route edges="genE318 genE307"/>
	</vehicle>
	<vehicle depart="204.52" departLane="free" departSpeed="max" id="11647" type="CV">
		<route edges="genE296 genE307"/>
	</vehicle>
	<vehicle depart="205.52" departLane="free" departSpeed="max" id="11450" type="HV">
		<route edges="genE318 genE307"/>
	</vehicle>
	<vehicle depart="208.11" departLane="free" departSpeed="max" id="11744" type="CV">
		<route edges="genE296 genE317"/>
	</vehicle>
	<vehicle depart="208.12" departLane="free" departSpeed="max" id="11946" type="HV">
		<route edges="genE316 genE297"/>
	</vehicle>
	<vehicle depart="214.1" departLane="free" departSpeed="max" id="11676" type="HV">
		<route edges="genE296 genE317"/>
	</vehicle>
	<vehicle depart="214.44" departLane="free" departSpeed="max" id="11638" type="HV">
		<route edges="genE296 genE307"/>
	</vehicle>
	<vehicle depart="214.75" departLane="free" departSpeed="max" id="11486" type="HV">
		<route edges="genE296 genE307"/>
	</vehicle>
	<vehicle depart="218.52" departLane="free" departSpeed="max" id="11968" type="CV">
		<route edges="genE316 genE297"/>
	</vehicle>
	<vehicle depart="219.24" departLane="free" departSpeed="max" id="11536" type="CV">
		<route edges="genE296 genE307"/>
	</vehicle>
	<vehicle depart="220.35" departLane="free" departSpeed="max" id="11585" type="HV">
		<route edges="genE296 genE307"/>
	</vehicle>
	<vehicle depart="220.62" departLane="free" departSpeed="max" id="11545" type="HV">
		<route edges="genE296 genE307"/>
	</vehicle>
	<vehicle depart="225.93" departLane="free" departSpeed="max" id="11876" type="CV">
		<route edges="genE316 genE297"/>
	</vehicle>
	<vehicle depart="240.33" departLane="free" departSpeed="max" id="12206" type="CV">
		<route edges="genE316 genE317"/>
	</vehicle>
	<vehicle depart="240.86" departLane="free" departSpeed="max" id="11768" type="CV">
		<route edges="genE296 genE317"/>
	</vehicle>
	<vehicle depart="241.7" departLane="free" departSpeed="max" id="11513" type="HV">
		<route edges="genE296 genE307"/>
	</vehicle>
	<vehicle depart="248.45" departLane="free" departSpeed="max" id="11487" type="CV">
		<route edges="genE296 genE307"/>
	</vehicle>
	<vehicle depart="253.87" departLane="free" departSpeed="max" id="11436" type="HV">
		<route edges="genE318 genE307"/>
	</vehicle>
	<vehicle depart="254.95" departLane="free" departSpeed="max" id="11464" type="HV">
		<route edges="genE296 genE307"/>
	</vehicle>
	<vehicle depart="256.99" departLane="free" departSpeed="max" id="11295" type="HV">
		<route edges="genE318 genE297"/>
	</vehicle>
	<vehicle depart="257.8" departLane="free" departSpeed="max" id="11482" type="HV">
		<route edges="genE296 genE307"/>
	</vehicle>
	<vehicle depart="261.99" departLane="free" departSpeed="max" id="12249" type="HV">
		<route edges="genE316 genE317"/>
	</vehicle>
	<vehicle depart="263.7" departLane="free" departSpeed="max" id="11622" type="HV">
		<route edges="genE296 genE307"/>
	</vehicle>
	<vehicle depart="264.99" departLane="free" departSpeed="max" id="11555" type="CV">
		<route edges="genE296 genE307"/>
	</vehicle>
	<vehicle depart="268.77" departLane="free" departSpeed="max" id="11565" type="HV">
		<route edges="genE296 genE307"/>
	</vehicle>
	<vehicle depart="274.16" departLane="free" departSpeed="max" id="11327" type="HV">
		<route edges="genE318 genE307"/>
	</vehicle>
	<vehicle depart="274.21" departLane="free" departSpeed="max" id="12044" type="HV">
		<route edges="genE316 genE297"/>
	</vehicle>
	<vehicle depart="274.55" departLane="free" departSpeed="max" id="11754" type="HV">
		<route edges="genE296 genE317"/>
	</vehicle>
	<vehicle depart="281.24" departLane="free" departSpeed="max" id="11769" type="CV">
		<route edges="genE296 genE317"/>
	</vehicle>
	<vehicle depart="282.84" departLane="free" departSpeed="max" id="11592" type="HV">
		<route edges="genE296 genE307"/>
	</vehicle>
	<vehicle depart="285.68" departLane="free" departSpeed="max" id="11970" type="HV">
		<route edges="genE316 genE297"/>
	</vehicle>
	<vehicle depart="285.75" departLane="free" departSpeed="max" id="11262" type="HV">
		<route edges="genE318 genE297"/>
	</vehicle>
	<vehicle depart="287.49" departLane="free" departSpeed="max" id="11893" type="HV">
		<route edges="genE316 genE297"/>
	</vehicle>
	<vehicle depart="287.52" departLane="free" departSpeed="max" id="12165" type="HV">
		<route edges="genE316 genE317"/>
	</vehicle>
	<vehicle depart="288.22" departLane="free" departSpeed="max" id="11707" type="CV">
		<route edges="genE296 genE317"/>
	</vehicle>
	<vehicle depart="290.51" departLane="free" departSpeed="max" id="12119" type="HV">
		<route edges="genE316 genE317"/>
	</vehicle>
	<vehicle depart="292.8" departLane="free" departSpeed="max" id="11775" type="CV">
		<route edges="genE296 genE317"/>
	</vehicle>
	<vehicle depart="296.02" departLane="free" departSpeed="max" id="12219" type="HV">
		<route edges="genE316 genE317"/>
	</vehicle>
	<vehicle depart="297.2" departLane="free" departSpeed="max" id="12134" type="HV">
		<route edges="genE316 genE317"/>
	</vehicle>
	<vehicle depart="303.33" departLane="free" departSpeed="max" id="11705" type="HV">
		<route edges="genE296 genE317"/>
	</vehicle>
	<vehicle depart="305.11" departLane="free" departSpeed="max" id="11726" type="HV">
		<route edges="genE296 genE317"/>
	</vehicle>
	<vehicle depart="305.57" departLane="free" departSpeed="max" id="12169" type="HV">
		<route edges="genE316 genE317"/>
	</vehicle>
	<vehicle depart="311.11" departLane="free" departSpeed="max" id="11253" type="HV">
		<route edges="genE318 genE297"/>
	</vehicle>
	<vehicle depart="313.38" departLane="free" departSpeed="max" id="11858" type="HV">
		<route edges="genE296 genE317"/>
	</vehicle>
	<vehicle depart="316.06" departLane="free" departSpeed="max" id="11832" type="HV">
		<route edges="genE296 genE317"/>
	</vehicle>
	<vehicle depart="316.58" departLane="free" departSpeed="max" id="12047" type="HV">
		<route edges="genE316 genE297"/>
	</vehicle>
	<vehicle depart="317.68" departLane="free" departSpeed="max" id="12098" type="HV">
		<route edges="genE316 genE317"/>
	</vehicle>
	<vehicle depart="323.72" departLane="free" departSpeed="max" id="11799" type="HV">
		<route edges="genE296 genE317"/>
	</vehicle>
	<vehicle depart="337.24" departLane="free" departSpeed="max" id="11953" type="CV">
		<route edges="genE316 genE297"/>
	</vehicle>
	<vehicle depart="337.52" departLane="free" departSpeed="max" id="11339" type="CV">
		<route edges="genE318 genE307"/>
	</vehicle>
	<vehicle depart="337.53" departLane="free" departSpeed="max" id="11945" type="HV">
		<route edges="genE316 genE297"/>
	</vehicle>
	<vehicle depart="340.16" departLane="free" departSpeed="max" id="11564" type="HV">
		<route edges="genE296 genE307"/>
	</vehicle>
	<vehicle depart="345.62" departLane="free" departSpeed="max" id="11747" type="HV">
		<route edges="genE296 genE317"/>
	</vehicle>
	<vehicle depart="345.82" departLane="free" departSpeed="max" id="11926" type="CV">
		<route edges="genE316 genE297"/>
	</vehicle>
	<vehicle depart="345.99" departLane="free" departSpeed="max" id="11684" type="HV">
		<route edges="genE296 genE317"/>
	</vehicle>
	<vehicle depart="350.12" departLane="free" departSpeed="max" id="11229" type="HV">
		<route edges="genE318 genE297"/>
	</vehicle>
	<vehicle depart="351.25" departLane="free" departSpeed="max" id="11255" type="HV">
		<route edges="genE318 genE297"/>
	</vehicle>
	<vehicle depart="354.84" departLane="free" departSpeed="max" id="11773" type="HV">
		<route edges="genE296 genE317"/>
	</vehicle>
	<vehicle depart="366.33" departLane="free" departSpeed="max" id="11265" type="HV">
		<route edges="genE318 genE297"/>
	</vehicle>
	<vehicle depart="367.98" departLane="free" departSpeed="max" id="11701" type="HV">
		<route edges="genE296 genE317"/>
	</vehicle>
	<vehicle depart="369.53" departLane="free" departSpeed="max" id="11452" type="HV">
		<route edges="genE318 genE307"/>
	</vehicle>
	<vehicle depart="369.61" departLane="free" departSpeed="max" id="11361" type="HV">
		<route edges="genE318 genE307"/>
	</vehicle>
	<vehicle depart="375.06" departLane="free" departSpeed="max" id="12019" type="HV">
		<route edges="genE316 genE297"/>
	</vehicle>
	<vehicle depart="379.0" departLane="free" departSpeed="max" id="11708" type="HV">
		<route edges="genE296 genE317"/>
	</vehicle>
	<vehicle depart="382.11" departLane="free" departSpeed="max" id="12123" type="HV">
		<route edges="genE316 genE317"/>
	</vehicle>
	<vehicle depart="385.91" departLane="free" departSpeed="max" id="11798" type="HV">
		<route edges="genE296 genE317"/>
	</vehicle>
	<vehicle depart="391.27" departLane="free" departSpeed="max" id="11836" type="CV">
		<route edges="genE296 genE317"/>
	</vehicle>
	<vehicle depart="395.82" departLane="free" departSpeed="max" id="11811" type="HV">
		<route edges="genE296 genE317"/>
	</vehicle>
	<vehicle depart="397.81" departLane="free" departSpeed="max" id="11254" type="HV">
		<route edges="genE318 genE297"/>
	</vehicle>
	<vehicle depart="400.63" departLane="free" departSpeed="max" id="12045" type="CV">
		<route edges="genE316 genE297"/>
	</vehicle>
	<vehicle depart="401.47" departLane="free" departSpeed="max" id="11442" type="HV">
		<route edges="genE318 genE307"/>
	</vehicle>
	<vehicle depart="402.75" departLane="free" departSpeed="max" id="11757" type="CV">
		<route edges="genE296 genE317"/>
	</vehicle>
	<vehicle depart="406.85" departLane="free" departSpeed="max" id="11681" type="HV">
		<route edges="genE296 genE317"/>
	</vehicle>
	<vehicle depart="412.13" departLane="free" departSpeed="max" id="12036" type="CV">
		<route edges="genE316 genE297"/>
	</vehicle>
	<vehicle depart="414.04" departLane="free" departSpeed="max" id="11315" type="HV">
		<route edges="genE318 genE307"/>
	</vehicle>
	<vehicle depart="414.26" departLane="free" departSpeed="max" id="12139" type="HV">
		<route edges="genE316 genE317"/>
	</vehicle>
	<vehicle depart="414.71" departLane="free" departSpeed="max" id="12245" type="HV">
		<route edges="genE316 genE317"/>
	</vehicle>
	<vehicle depart="417.9" departLane="free" departSpeed="max" id="11630" type="HV">
		<route edges="genE296 genE307"/>
	</vehicle>
	<vehicle depart="428.54" departLane="free" departSpeed="max" id="11606" type="CV">
		<route edges="genE296 genE307"/>
	</vehicle>
	<vehicle depart="429.06" departLane="free" departSpeed="max" id="12146" type="HV">
		<route edges="genE316 genE317"/>
	</vehicle>
	<vehicle depart="438.71" departLane="free" departSpeed="max" id="12027" type="CV">
		<route edges="genE316 genE297"/>
	</vehicle>
	<vehicle depart="442.9" departLane="free" departSpeed="max" id="11944" type="HV">
		<route edges="genE316 genE297"/>
	</vehicle>
	<vehicle depart="448.92" departLane="free" departSpeed="max" id="12253" type="CV">
		<route edges="genE316 genE317"/>
	</vehicle>
	<vehicle depart="451.57" departLane="free" departSpeed="max" id="11363" type="HV">
		<route edges="genE318 genE307"/>
	</vehicle>
	<vehicle depart="455.24" departLane="free" departSpeed="max" id="11337" type="HV">
		<route edges="genE318 genE307"/>
	</vehicle>
	<vehicle depart="457.47" departLane="free" departSpeed="max" id="11712" type="HV">
		<route edges="genE296 genE317"/>
	</vehicle>
	<vehicle depart="457.97" departLane="free" departSpeed="max" id="11643" type="HV">
		<route edges="genE296 genE307"/>
	</vehicle>
	<vehicle depart="459.52" departLane="free" departSpeed="max" id="11865" type="HV">
		<route edges="genE296 genE317"/>
	</vehicle>
	<vehicle depart="462.25" departLane="free" departSpeed="max" id="11886" type="CV">
		<route edges="genE316 genE297"/>
	</vehicle>
	<vehicle depart="464.28" departLane="free" departSpeed="max" id="11658" type="CV">
		<route edges="genE296 genE317"/>
	</vehicle>
	<vehicle depart="464.68" departLane="free" departSpeed="max" id="12116" type="HV">
		<route edges="genE316 genE317"/>
	</vehicle>
	<vehicle depart="468.44" departLane="free" departSpeed="max" id="11303" type="HV">
		<route edges="genE318 genE297"/>
	</vehicle>
	<vehicle depart="468.57" departLane="free" departSpeed="max" id="12195" type="HV">
		<route edges="genE316 genE317"/>
	</vehicle>
	<vehicle depart="469.04" departLane="free" departSpeed="max" id="11365" type="HV">
		<route edges="genE318 genE307"/>
	</vehicle>
	<vehicle depart="470.87" departLane="free" departSpeed="max" id="11231" type="HV">
		<route edges="genE318 genE297"/>
	</vehicle>
	<vehicle depart="472.8" departLane="free" departSpeed="max" id="11695" type="HV">
		<route edges="genE296 genE317"/>
	</vehicle>
	<vehicle depart="478.8" departLane="free" departSpeed="max" id="12229" type="HV">
		<route edges="genE316 genE317"/>
	</vehicle>
	<vehicle depart="481.02" departLane="free" departSpeed="max" id="12193" type="HV">
		<route edges="genE316 genE317"/>
	</vehicle>
	<vehicle depart="481.89" departLane="free" departSpeed="max" id="11511" type="HV">
		<route edges="genE296 genE307"/>
	</vehicle>
	<vehicle depart="482.43" departLane="free" departSpeed="max" id="11758" type="HV">
		<route edges="genE296 genE317"/>
	</vehicle>
	<vehicle depart="484.32" departLane="free" departSpeed="max" id="11521" type="HV">
		<route edges="genE296 genE307"/>
	</vehicle>
	<vehicle depart="485.67" departLane="free" departSpeed="max" id="12076" type="HV">
		<route edges="genE316 genE297"/>
	</vehicle>
	<vehicle depart="487.93" departLane="free" departSpeed="max" id="12147" type="CV">
		<route edges="genE316 genE317"/>
	</vehicle>
	<vehicle depart="489.55" departLane="free" departSpeed="max" id="11962" type="HV">
		<route edges="genE316 genE297"/>
	</vehicle>
	<vehicle depart="491.79" departLane="free" departSpeed="max" id="11900" type="CV">
		<route edges="genE316 genE297"/>
	</vehicle>
	<vehicle depart="495.62" departLane="free" departSpeed="max" id="12070" type="HV">
		<route edges="genE316 genE297"/>
	</vehicle>
	<vehicle depart="498.72" departLane="free" departSpeed="max" id="12168" type="HV">
		<route edges="genE316 genE317"/>
	</vehicle>
	<vehicle depart="500.11" departLane="free" departSpeed="max" id="11853" type="HV">
		<route edges="genE296 genE317"/>
	</vehicle>
	<vehicle depart="501.62" departLane="free" departSpeed="max" id="11698" type="HV">
		<route edges="genE296 genE317"/>
	</vehicle>
	<vehicle depart="503.02" departLane="free" departSpeed="max" id="12110" type="HV">
		<route edges="genE316 genE317"/>
	</vehicle>
	<vehicle depart="503.04" departLane="free" departSpeed="max" id="12237" type="HV">
		<route edges="genE316 genE317"/>
	</vehicle>
	<vehicle depart="507.79" departLane="free" departSpeed="max" id="11425" type="HV">
		<route edges="genE318 genE307"/>
	</vehicle>
	<vehicle depart="512.13" departLane="free" departSpeed="max" id="11804" type="CV">
		<route edges="genE296 genE317"/>
	</vehicle>
	<vehicle depart="517.61" departLane="free" departSpeed="max" id="11862" type="HV">
		<route edges="genE296 genE317"/>
	</vehicle>
	<vehicle depart="517.82" departLane="free" departSpeed="max" id="11797" type="HV">
		<route edges="genE296 genE317"/>
	</vehicle>
	<vehicle depart="518.73" departLane="free" departSpeed="max" id="11814" type="HV">
		<route edges="genE296 genE317"/>
	</vehicle>
	<vehicle depart="523.05" departLane="free" departSpeed="max" id="11340" type="HV">
		<route edges="genE318 genE307"/>
	</vehicle>
	<vehicle depart="527.14" departLane="free" departSpeed="max" id="11496" type="HV">
		<route edges="genE296 genE307"/>
	</vehicle>
	<vehicle depart="527.59" departLane="free" departSpeed="max" id="11367" type="CV">
		<route edges="genE318 genE307"/>
	</vehicle>
	<vehicle depart="530.7" departLane="free" departSpeed="max" id="11914" type="HV">
		<route edges="genE316 genE297"/>
	</vehicle>
	<vehicle depart="531.04" departLane="free" departSpeed="max" id="11837" type="CV">
		<route edges="genE296 genE317"/>
	</vehicle>
	<vehicle depart="534.8" departLane="free" departSpeed="max" id="12205" type="CV">
		<route edges="genE316 genE317"/>
	</vehicle>
	<vehicle depart="536.0" departLane="free" departSpeed="max" id="11331" type="HV">
		<route edges="genE318 genE307"/>
	</vehicle>
	<vehicle depart="542.2" departLane="free" departSpeed="max" id="11463" type="CV">
		<route edges="genE296 genE307"/>
	</vehicle>
	<vehicle depart="551.48" departLane="free" departSpeed="max" id="11749" type="HV">
		<route edges="genE296 genE317"/>
	</vehicle>
	<vehicle depart="559.91" departLane="free" departSpeed="max" id="11237" type="CV">
		<route edges="genE318 genE297"/>
	</vehicle>
	<vehicle depart="560.52" departLane="free" departSpeed="max" id="11509" type="HV">
		<route edges="genE296 genE307"/>
	</vehicle>
	<vehicle depart="562.63" departLane="free" departSpeed="max" id="11485" type="CV">
		<route edges="genE296 genE307"/>
	</vehicle>
	<vehicle depart="568.66" departLane="free" departSpeed="max" id="11251" type="HV">
		<route edges="genE318 genE297"/>
	</vehicle>
	<vehicle depart="576.74" departLane="free" departSpeed="max" id="11761" type="CV">
		<route edges="genE296 genE317"/>
	</vehicle>
	<vehicle depart="577.35" departLane="free" departSpeed="max" id="11936" type="HV">
		<route edges="genE316 genE297"/>
	</vehicle>
	<vehicle depart="578.01" departLane="free" departSpeed="max" id="11540" type="HV">
		<route edges="genE296 genE307"/>
	</vehicle>
	<vehicle depart="578.3" departLane="free" departSpeed="max" id="12258" type="HV">
		<route edges="genE316 genE317"/>
	</vehicle>
	<vehicle depart="580.38" departLane="free" departSpeed="max" id="11892" type="HV">
		<route edges="genE316 genE297"/>
	</vehicle>
	<vehicle depart="582.35" departLane="free" departSpeed="max" id="11795" type="HV">
		<route edges="genE296 genE317"/>
	</vehicle>
	<vehicle depart="583.78" departLane="free" departSpeed="max" id="11558" type="HV">
		<route edges="genE296 genE307"/>
	</vehicle>
	<vehicle depart="590.22" departLane="free" departSpeed="max" id="11471" type="CV">
		<route edges="genE296 genE307"/>
	</vehicle>
	<vehicle depart="598.58" departLane="free" departSpeed="max" id="11669" type="CV">
		<route edges="genE296 genE317"/>
	</vehicle>
	<vehicle depart="600.86" departLane="free" departSpeed="max" id="11620" type="CV">
		<route edges="genE296 genE307"/>
	</vehicle>
	<vehicle depart="602.73" departLane="free" departSpeed="max" id="12033" type="HV">
		<route edges="genE316 genE297"/>
	</vehicle>
	<vehicle depart="605.24" departLane="free" departSpeed="max" id="11375" type="CV">
		<route edges="genE318 genE307"/>
	</vehicle>
	<vehicle depart="617.93" departLane="free" departSpeed="max" id="11697" type="HV">
		<route edges="genE296 genE317"/>
	</vehicle>
	<vehicle depart="631.23" departLane="free" departSpeed="max" id="11297" type="CV">
		<route edges="genE318 genE297"/>
	</vehicle>
	<vehicle depart="631.43" departLane="free" departSpeed="max" id="12090" type="HV">
		<route edges="genE316 genE317"/>
	</vehicle>
	<vehicle depart="632.12" departLane="free" departSpeed="max" id="12102" type="HV">
		<route edges="genE316 genE317"/>
	</vehicle>
	<vehicle depart="637.7" departLane="free" departSpeed="max" id="11312" type="CV">
		<route edges="genE318 genE307"/>
	</vehicle>
	<vehicle depart="637.82" departLane="free" departSpeed="max" id="11774" type="HV">
		<route edges="genE296 genE317"/>
	</vehicle>
	<vehicle depart="641.02" departLane="free" departSpeed="max" id="12198" type="HV">
		<route edges="genE316 genE317"/>
	</vehicle>
	<vehicle depart="647.09" departLane="free" departSpeed="max" id="11422" type="CV">
		<route edges="genE318 genE307"/>
	</vehicle>
	<vehicle depart="650.03" departLane="free" departSpeed="max" id="12173" type="HV">
		<route edges="genE316 genE317"/>
	</vehicle>
	<vehicle depart="652.34" departLane="free" departSpeed="max" id="11347" type="CV">
		<route edges="genE318 genE307"/>
	</vehicle>
	<vehicle depart="654.07" departLane="free" departSpeed="max" id="11475" type="HV">
		<route edges="genE296 genE307"/>
	</vehicle>
	<vehicle depart="655.14" departLane="free" departSpeed="max" id="11366" type="HV">
		<route edges="genE318 genE307"/>
	</vehicle>
	<vehicle depart="660.08" departLane="free" departSpeed="max" id="12246" type="HV">
		<route edges="genE316 genE317"/>
	</vehicle>
	<vehicle depart="660.48" departLane="free" departSpeed="max" id="11827" type="CV">
		<route edges="genE296 genE317"/>
	</vehicle>
	<vehicle depart="661.58" departLane="free" departSpeed="max" id="11307" type="CV">
		<route edges="genE318 genE297"/>
	</vehicle>
	<vehicle depart="662.06" departLane="free" departSpeed="max" id="11887" type="HV">
		<route edges="genE316 genE297"/>
	</vehicle>
	<vehicle depart="662.7" departLane="free" departSpeed="max" id="11362" type="HV">
		<route edges="genE318 genE307"/>
	</vehicle>
	<vehicle depart="671.48" departLane="free" departSpeed="max" id="12065" type="HV">
		<route edges="genE316 genE297"/>
	</vehicle>
	<vehicle depart="671.5" departLane="free" departSpeed="max" id="12220" type="CV">
		<route edges="genE316 genE317"/>
	</vehicle>
	<vehicle depart="673.44" departLane="free" departSpeed="max" id="11474" type="CV">
		<route edges="genE296 genE307"/>
	</vehicle>
	<vehicle depart="684.3" departLane="free" departSpeed="max" id="11933" type="HV">
		<route edges="genE316 genE297"/>
	</vehicle>
	<vehicle depart="688.19" departLane="free" departSpeed="max" id="12026" type="HV">
		<route edges="genE316 genE297"/>
	</vehicle>
	<vehicle depart="689.1" departLane="free" departSpeed="max" id="11918" type="HV">
		<route edges="genE316 genE297"/>
	</vehicle>
	<vehicle depart="689.25" departLane="free" departSpeed="max" id="11716" type="HV">
		<route edges="genE296 genE317"/>
	</vehicle>
	<vehicle depart="689.32" departLane="free" departSpeed="max" id="12032" type="HV">
		<route edges="genE316 genE297"/>
	</vehicle>