<?xml version="1.0" ?>
<routes>
	<vType accel="0.8" decel="4.5" id="CV" length="5" maxSpeed="45" sigma="0.5"/>
	<vType accel="0.8" decel="4.5" id="HV" length="5" maxSpeed="40" sigma="0.5"/>
	<vehicle depart="4.28" departLane="free" departSpeed="max" id="10790" type="HV">
		<route edges="genE296 genE317"/>
	</vehicle>
	<vehicle depart="9.11" departLane="free" departSpeed="max" id="10592" type="HV">
		<route edges="genE296 genE307"/>
	</vehicle>
	<vehicle depart="9.75" departLane="free" departSpeed="max" id="10577" type="HV">
		<route edges="genE296 genE307"/>
	</vehicle>
	<vehicle depart="10.34" departLane="free" departSpeed="max" id="10983" type="CV">
		<route edges="genE316 genE297"/>
	</vehicle>
	<vehicle depart="14.52" departLane="free" departSpeed="max" id="10668" type="HV">
		<route edges="genE296 genE307"/>
	</vehicle>
	<vehicle depart="14.79" departLane="free" departSpeed="max" id="10816" type="HV">
		<route edges="genE296 genE317"/>
	</vehicle>
	<vehicle depart="15.36" departLane="free" departSpeed="max" id="10980" type="HV">
		<route edges="genE316 genE297"/>
	</vehicle>
	<vehicle depart="18.93" departLane="free" departSpeed="max" id="10984" type="HV">
		<route edges="genE316 genE297"/>
	</vehicle>
	<vehicle depart="22.09" departLane="free" departSpeed="max" id="10547" type="HV">
		<route edges="genE296 genE307"/>
	</vehicle>
	<vehicle depart="24.79" departLane="free" departSpeed="max" id="10343" type="HV">
		<route edges="genE318 genE297"/>
	</vehicle>
	<vehicle depart="33.77" departLane="free" departSpeed="max" id="10476" type="CV">
		<route edges="genE318 genE307"/>
	</vehicle>
	<vehicle depart="38.32" departLane="free" departSpeed="max" id="11122" type="HV">
		<route edges="genE316 genE317"/>
	</vehicle>
	<vehicle depart="50.76" departLane="free" departSpeed="max" id="10491" type="HV">
		<route edges="genE318 genE307"/>
	</vehicle>
	<vehicle depart="51.06" departLane="free" departSpeed="max" id="10775" type="HV">
		<route edges="genE296 genE317"/>
	</vehicle>
	<vehicle depart="51.99" departLane="free" departSpeed="max" id="11102" type="HV">
		<route edges="genE316 genE317"/>
	</vehicle>
	<vehicle depart="52.41" departLane="free" departSpeed="max" id="10922" type="HV">
		<route edges="genE316 genE297"/>
	</vehicle>
	<vehicle depart="53.2" departLane="free" departSpeed="max" id="11018" type="HV">
		<route edges="genE316 genE297"/>
	</vehicle>
	<vehicle depart="56.26" departLane="free" departSpeed="max" id="10735" type="HV">
		<route edges="genE296 genE317"/>
	</vehicle>
	<vehicle depart="64.51" departLane="free" departSpeed="max" id="10368" type="HV">
		<route edges="genE318 genE297"/>
	</vehicle>
	<vehicle depart="67.52" departLane="free" departSpeed="max" id="10733" type="HV">
		<route edges="genE296 genE317"/>
	</vehicle>
	<vehicle depart="68.74" departLane="free" departSpeed="max" id="10373" type="HV">
		<route edges="genE318 genE297"/>
	</vehicle>
	<vehicle depart="71.92" departLane="free" departSpeed="max" id="10824" type="HV">
		<route edges="genE296 genE317"/>
	</vehicle>
	<vehicle depart="72.95" departLane="free" departSpeed="max" id="10772" type="HV">
		<route edges="genE296 genE317"/>
	</vehicle>
	<vehicle depart="75.19" departLane="free" departSpeed="max" id="10680" type="CV">
		<route edges="genE296 genE307"/>
	</vehicle>
	<vehicle depart="90.04" departLane="free" departSpeed="max" id="10985" type="HV">
		<route edges="genE316 genE297"/>
	</vehicle>
	<vehicle depart="91.91" departLane="free" departSpeed="max" id="10853" type="HV">
		<route edges="genE296 genE317"/>
	</vehicle>
	<vehicle depart="94.31" departLane="free" departSpeed="max" id="10686" type="HV">
		<route edges="genE296 genE307"/>
	</vehicle>
	<vehicle depart="95.5" departLane="free" departSpeed="max" id="10781" type="HV">
		<route edges="genE296 genE317"/>
	</vehicle>
	<vehicle depart="96.49" departLane="free" departSpeed="max" id="10745" type="HV">
		<route edges="genE296 genE317"/>
	</vehicle>
	<vehicle depart="101.64" departLane="free" departSpeed="max" id="10482" type="CV">
		<route edges="genE318 genE307"/>
	</vehicle>
	<vehicle depart="104.25" departLane="free" departSpeed="max" id="10987" type="HV">
		<route edges="genE316 genE297"/>
	</vehicle>
	<vehicle depart="106.92" departLane="free" departSpeed="max" id="10699" type="HV">
		<route edges="genE296 genE317"/>
	</vehicle>
	<vehicle depart="109.07" departLane="free" departSpeed="max" id="10323" type="HV">
		<route edges="genE318 genE297"/>
	</vehicle>
	<vehicle depart="110.08" departLane="free" departSpeed="max" id="11023" type="HV">
		<route edges="genE316 genE297"/>
	</vehicle>
	<vehicle depart="118.6" departLane="free" departSpeed="max" id="10333" type="HV">
		<route edges="genE318 genE297"/>
	</vehicle>
	<vehicle depart="123.3" departLane="free" departSpeed="max" id="10598" type="HV">
		<route edges="genE296 genE307"/>
	</vehicle>
	<vehicle depart="127.18" departLane="free" departSpeed="max" id="10968" type="HV">
		<route edges="genE316 genE297"/>
	</vehicle>
	<vehicle depart="127.23" departLane="free" departSpeed="max" id="11137" type="HV">
		<route edges="genE316 genE317"/>
	</vehicle>
	<vehicle depart="132.7" departLane="free" departSpeed="max" id="10367" type="HV">
		<route edges="genE318 genE297"/>
	</vehicle>
	<vehicle depart="145.46" departLane="free" departSpeed="max" id="10936" type="HV">
		<route edges="genE316 genE297"/>
	</vehicle>
	<vehicle depart="159.85" departLane="free" departSpeed="max" id="11131" type="HV">
		<route edges="genE316 genE317"/>
	</vehicle>
	<vehicle depart="163.39" departLane="free" departSpeed="max" id="10737" type="CV">
		<route edges="genE296 genE317"/>
	</vehicle>
	<vehicle depart="163.86" departLane="free" departSpeed="max" id="10965" type="CV">
		<route edges="genE316 genE297"/>
	</vehicle>
	<vehicle depart="165.35" departLane="free" departSpeed="max" id="10545" type="HV">
		<route edges="genE296 genE307"/>
	</vehicle>
	<vehicle depart="173.74" departLane="free" departSpeed="max" id="10995" type="HV">
		<route edges="genE316 genE297"/>
	</vehicle>
	<vehicle depart="176.21" departLane="free" departSpeed="max" id="10443" type="HV">
		<route edges="genE318 genE307"/>
	</vehicle>
	<vehicle depart="177.96" departLane="free" departSpeed="max" id="10675" type="HV">
		<route edges="genE296 genE307"/>
	</vehicle>
	<vehicle depart="179.43" departLane="free" departSpeed="max" id="11033" type="HV">
		<route edges="genE316 genE297"/>
	</vehicle>
	<vehicle depart="183.75" departLane="free" departSpeed="max" id="10629" type="HV">
		<route edges="genE296 genE307"/>
	</vehicle>
	<vehicle depart="187.39" departLane="free" departSpeed="max" id="11078" type="HV">
		<route edges="genE316 genE317"/>
	</vehicle>
	<vehicle depart="189.23" departLane="free" departSpeed="max" id="11220" type="HV">
		<route edges="genE316 genE317"/>
	</vehicle>
	<vehicle depart="190.18" departLane="free" departSpeed="max" id="10845" type="HV">
		<route edges="genE296 genE317"/>
	</vehicle>
	<vehicle depart="197.39" departLane="free" departSpeed="max" id="10862" type="HV">
		<route edges="genE296 genE317"/>
	</vehicle>
	<vehicle depart="197.94" departLane="free" departSpeed="max" id="10511" type="HV">
		<route edges="genE318 genE307"/>
	</vehicle>
	<vehicle depart="202.6" departLane="free" departSpeed="max" id="11204" type="HV">
		<route edges="genE316 genE317"/>
	</vehicle>
	<vehicle depart="205.51" departLane="free" departSpeed="max" id="10569" type="HV">
		<route edges="genE296 genE307"/>
	</vehicle>
	<vehicle depart="208.35" departLane="free" departSpeed="max" id="10693" type="HV">
		<route edges="genE296 genE307"/>
	</vehicle>
	<vehicle depart="218.38" departLane="free" departSpeed="max" id="10422" type="HV">
		<route edges="genE318 genE307"/>
	</vehicle>
	<vehicle depart="225.16" departLane="free" departSpeed="max" id="10729" type="CV">
		<route edges="genE296 genE317"/>
	</vehicle>
	<vehicle depart="225.16" departLane="free" departSpeed="max" id="10989" type="HV">
		<route edges="genE316 genE297"/>
	</vehicle>
	<vehicle depart="231.16" departLane="free" departSpeed="max" id="11026" type="HV">
		<route edges="genE316 genE297"/>
	</vehicle>
	<vehicle depart="238.95" departLane="free" departSpeed="max" id="10691" type="HV">
		<route edges="genE296 genE307"/>
	</vehicle>
	<vehicle depart="241.22" departLane="free" departSpeed="max" id="10445" type="HV">
		<route edges="genE318 genE307"/>
	</vehicle>
	<vehicle depart="241.47" departLane="free" departSpeed="max" id="10994" type="HV">
		<route edges="genE316 genE297"/>
	</vehicle>
	<vehicle depart="247.96" departLane="free" departSpeed="max" id="11059" type="HV">
		<route edges="genE316 genE297"/>
	</vehicle>
	<vehicle depart="256.74" departLane="free" departSpeed="max" id="10807" type="HV">
		<route edges="genE296 genE317"/>
	</vehicle>
	<vehicle depart="258.61" departLane="free" departSpeed="max" id="10513" type="HV">
		<route edges="genE318 genE307"/>
	</vehicle>
	<vehicle depart="259.01" departLane="free" departSpeed="max" id="11042" type="HV">
		<route edges="genE316 genE297"/>
	</vehicle>
	<vehicle depart="261.94" departLane="free" departSpeed="max" id="10331" type="HV">
		<route edges="genE318 genE297"/>
	</vehicle>
	<vehicle depart="263.46" departLane="free" departSpeed="max" id="11015" type="HV">
		<route edges="genE316 genE297"/>
	</vehicle>
	<vehicle depart="268.17" departLane="free" departSpeed="max" id="10354" type="HV">
		<route edges="genE318 genE297"/>
	</vehicle>
	<vehicle depart="272.74" departLane="free" departSpeed="max" id="11211" type="CV">
		<route edges="genE316 genE317"/>
	</vehicle>
	<vehicle depart="272.77" departLane="free" departSpeed="max" id="10949" type="HV">
		<route edges="genE316 genE297"/>
	</vehicle>
	<vehicle depart="277.76" departLane="free" departSpeed="max" id="11118" type="CV">
		<route edges="genE316 genE317"/>
	</vehicle>
	<vehicle depart="284.6" departLane="free" departSpeed="max" id="10335" type="HV">
		<route edges="genE318 genE297"/>
	</vehicle>
	<vehicle depart="290.7" departLane="free" departSpeed="max" id="11135" type="HV">
		<route edges="genE316 genE317"/>
	</vehicle>
	<vehicle depart="294.45" departLane="free" departSpeed="max" id="10947" type="HV">
		<route edges="genE316 genE297"/>
	</vehicle>
	<vehicle depart="296.77" departLane="free" departSpeed="max" id="11073" type="CV">
		<route edges="genE316 genE297"/>
	</vehicle>
	<vehicle depart="297.36" departLane="free" departSpeed="max" id="10455" type="HV">
		<route edges="genE318 genE307"/>
	</vehicle>
	<vehicle depart="297.91" departLane="free" departSpeed="max" id="10469" type="HV">
		<route edges="genE318 genE307"/>
	</vehicle>
	<vehicle depart="312.39" departLane="free" departSpeed="max" id="10690" type="HV">
		<route edges="genE296 genE307"/>
	</vehicle>
	<vehicle depart="314.41" departLane="free" departSpeed="max" id="10473" type="CV">
		<route edges="genE318 genE307"/>
	</vehicle>
	<vehicle depart="317.81" departLane="free" departSpeed="max" id="11145" type="HV">
		<route edges="genE316 genE317"/>
	</vehicle>
	<vehicle depart="321.54" departLane="free" departSpeed="max" id="10911" type="HV">
		<route edges="genE316 genE297"/>
	</vehicle>
	<vehicle depart="324.39" departLane="free" departSpeed="max" id="10662" type="HV">
		<route edges="genE296 genE307"/>
	</vehicle>
	<vehicle depart="329.25" departLane="free" departSpeed="max" id="10780" type="HV">
		<route edges="genE296 genE317"/>
	</vehicle>
	<vehicle depart="336.24" departLane="free" departSpeed="max" id="10788" type="CV">
		<route edges="genE296 genE317"/>
	</vehicle>
	<vehicle depart="346.92" departLane="free" departSpeed="max" id="10517" type="HV">
		<route edges="genE318 genE307"/>
	</vehicle>
	<vehicle depart="347.45" departLane="free" departSpeed="max" id="11133" type="CV">
		<route edges="genE316 genE317"/>
	</vehicle>
	<vehicle depart="348.46" departLane="free" departSpeed="max" id="10392" type="HV">
		<route edges="genE318 genE297"/>
	</vehicle>
	<vehicle depart="350.63" departLane="free" departSpeed="max" id="11134" type="CV">
		<route edges="genE316 genE317"/>
	</vehicle>
	<vehicle depart="354.91" departLane="free" departSpeed="max" id="10533" type="HV">
		<route edges="genE296 genE307"/>
	</vehicle>
	<vehicle depart="358.25" departLane="free" departSpeed="max" id="10337" type="CV">
		<route edges="genE318 genE297"/>
	</vehicle>
	<vehicle depart="359.64" departLane="free" departSpeed="max" id="10403" type="HV">
		<route edges="genE318 genE307"/>
	</vehicle>
	<vehicle depart="363.62" departLane="free" departSpeed="max" id="10858" type="CV">
		<route edges="genE296 genE317"/>
	</vehicle>
	<vehicle depart="369.94" departLane="free" departSpeed="max" id="10722" type="HV">
		<route edges="genE296 genE317"/>
	</vehicle>
	<vehicle depart="375.03" departLane="free" departSpeed="max" id="11115" type="HV">
		<route edges="genE316 genE317"/>
	</vehicle>
	<vehicle depart="379.37" departLane="free" departSpeed="max" id="10362" type="HV">
		<route edges="genE318 genE297"/>
	</vehicle>
	<vehicle depart="391.01" departLane="free" departSpeed="max" id="10813" type="HV">
		<route edges="genE296 genE317"/>
	</vehicle>
	<vehicle depart="397.88" departLane="free" departSpeed="max" id="10400" type="HV">
		<route edges="genE318 genE307"/>
	</vehicle>
	<vehicle depart="399.75" departLane="free" departSpeed="max" id="11009" type="HV">
		<route edges="genE316 genE297"/>
	</vehicle>
	<vehicle depart="400.96" departLane="free" departSpeed="max" id="11152" type="HV">
		<route edges="genE316 genE317"/>
	</vehicle>
	<vehicle depart="403.51" departLane="free" departSpeed="max" id="10494" type="HV">
		<route edges="genE318 genE307"/>
	</vehicle>
	<vehicle depart="406.55" departLane="free" departSpeed="max" id="10458" type="HV">
		<route edges="genE318 genE307"/>
	</vehicle>
	<vehicle depart="413.73" departLane="free" departSpeed="max" id="11161" type="HV">
		<route edges="genE316 genE317"/>
	</vehicle>
	<vehicle depart="413.82" departLane="free" departSpeed="max" id="10836" type="CV">
		<route edges="genE296 genE317"/>
	</vehicle>
	<vehicle depart="418.15" departLane="free" departSpeed="max" id="11168" type="HV">
		<route edges="genE316 genE317"/>
	</vehicle>
	<vehicle depart="419.15" departLane="free" departSpeed="max" id="10826" type="HV">
		<route edges="genE296 genE317"/>
	</vehicle>
	<vehicle depart="419.35" departLane="free" departSpeed="max" id="11119" type="HV">
		<route edges="genE316 genE317"/>
	</vehicle>
	<vehicle depart="425.78" departLane="free" departSpeed="max" id="10757" type="HV">
		<route edges="genE296 genE317"/>
	</vehicle>
	<vehicle depart="430.22" departLane="free" departSpeed="max" id="10734" type="HV">
		<route edges="genE296 genE317"/>
	</vehicle>
	<vehicle depart="430.5" departLane="free" departSpeed="max" id="10773" type="HV">
		<route edges="genE296 genE317"/>
	</vehicle>
	<vehicle depart="430.6" departLane="free" departSpeed="max" id="10866" type="CV">
		<route edges="genE296 genE317"/>
	</vehicle>
	<vehicle depart="431.95" departLane="free" departSpeed="max" id="10997" type="HV">
		<route edges="genE316 genE297"/>
	</vehicle>
	<vehicle depart="436.18" departLane="free" departSpeed="max" id="10747" type="HV">
		<route edges="genE296 genE317"/>
	</vehicle>
	<vehicle depart="444.99" departLane="free" departSpeed="max" id="10684" type="CV">
		<route edges="genE296 genE307"/>
	</vehicle>
	<vehicle depart="449.71" departLane="free" departSpeed="max" id="10381" type="HV">
		<route edges="genE318 genE297"/>
	</vehicle>
	<vehicle depart="455.16" departLane="free" departSpeed="max" id="10553" type="HV">
		<route edges="genE296 genE307"/>
	</vehicle>
	<vehicle depart="459.86" departLane="free" departSpeed="max" id="11214" type="HV">
		<route edges="genE316 genE317"/>
	</vehicle>
	<vehicle depart="463.88" departLane="free" departSpeed="max" id="10615" type="HV">
		<route edges="genE296 genE307"/>
	</vehicle>
	<vehicle depart="469.52" departLane="free" departSpeed="max" id="10364" type="HV">
		<route edges="genE318 genE297"/>
	</vehicle>
	<vehicle depart="470.24" departLane="free" departSpeed="max" id="10427" type="HV">
		<route edges="genE318 genE307"/>
	</vehicle>
	<vehicle depart="471.4" departLane="free" departSpeed="max" id="11087" type="HV">
		<route edges="genE316 genE317"/>
	</vehicle>
	<vehicle depart="478.0" departLane="free" departSpeed="max" id="10833" type="HV">
		<route edges="genE296 genE317"/>
	</vehicle>
	<vehicle depart="478.73" departLane="free" departSpeed="max" id="10348" type="HV">
		<route edges="genE318 genE297"/>
	</vehicle>
	<vehicle depart="478.78" departLane="free" departSpeed="max" id="10878" type="HV">
		<route edges="genE296 genE317"/>
	</vehicle>
	<vehicle depart="480.47" departLane="free" departSpeed="max" id="11020" type="HV">
		<route edges="genE316 genE297"/>
	</vehicle>
	<vehicle depart="480.87" departLane="free" departSpeed="max" id="11140" type="CV">
		<route edges="genE316 genE317"/>
	</vehicle>
	<vehicle depart="489.49" departLane="free" departSpeed="max" id="11088" type="HV">
		<route edges="genE316 genE317"/>
	</vehicle>
	<vehicle depart="492.99" departLane="free" departSpeed="max" id="10556" type="HV">
		<route edges="genE296 genE307"/>
	</vehicle>
	<vehicle depart="496.36" departLane="free" departSpeed="max" id="10925" type="HV">
		<route edges="genE316 genE297"/>
	</vehicle>
	<vehicle depart="507.85" departLane="free" departSpeed="max" id="10930" type="HV">
		<route edges="genE316 genE297"/>
	</vehicle>
	<vehicle depart="512.28" departLane="free" departSpeed="max" id="11175" type="HV">
		<route edges="genE316 genE317"/>
	</vehicle>
	<vehicle depart="512.44" departLane="free" departSpeed="max" id="10861" type="HV">
		<route edges="genE296 genE317"/>
	</vehicle>
	<vehicle depart="512.55" departLane="free" departSpeed="max" id="10948" type="HV">
		<route edges="genE316 genE297"/>
	</vehicle>
	<vehicle depart="514.99" departLane="free" departSpeed="max" id="11110" type="HV">
		<route edges="genE316 genE317"/>
	</vehicle>
	<vehicle depart="515.15" departLane="free" departSpeed="max" id="10358" type="HV">
		<route edges="genE318 genE297"/>
	</vehicle>
	<vehicle depart="516.02" departLane="free" departSpeed="max" id="10751" type="HV">
		<route edges="genE296 genE317"/>
	</vehicle>
	<vehicle depart="521.56" departLane="free" departSpeed="max" id="10525" type="CV">
		<route edges="genE318 genE307"/>
	</vehicle>
	<vehicle depart="523.73" departLane="free" departSpeed="max" id="11143" type="CV">
		<route edges="genE316 genE317"/>
	</vehicle>
	<vehicle depart="534.43" departLane="free" departSpeed="max" id="10727" type="CV">
		<route edges="genE296 genE317"/>
	</vehicle>
	<vehicle depart="546.99" departLane="free" departSpeed="max" id="10350" type="HV">
		<route edges="genE318 genE297"/>
	</vehicle>
	<vehicle depart="548.24" departLane="free" departSpeed="max" id="10771" type="CV">
		<route edges="genE296 genE317"/>
	</vehicle>
	<vehicle depart="552.75" departLane="free" departSpeed="max" id="10474" type="HV">
		<route edges="genE318 genE307"/>
	</vehicle>
	<vehicle depart="560.16" departLane="free" departSpeed="max" id="10402" type="CV">
		<route edges="genE318 genE307"/>
	</vehicle>
	<vehicle depart="561.93" departLane="free" departSpeed="max" id="11150" type="HV">
		<route edges="genE316 genE317"/>
	</vehicle>
	<vehicle depart="567.61" departLane="free" departSpeed="max" id="10627" type="HV">
		<route edges="genE296 genE307"/>
	</vehicle>
	<vehicle depart="580.28" departLane="free" departSpeed="max" id="10620" type="HV">
		<route edges="genE296 genE307"/>
	</vehicle>
	<vehicle depart="583.47" departLane="free" departSpeed="max" id="10763" type="HV">
		<route edges="genE296 genE317"/>
	</vehicle>
	<vehicle depart="585.64" departLane="free" departSpeed="max" id="10774" type="HV">
		<route edges="genE296 genE317"/>
	</vehicle>
	<vehicle depart="585.81" departLane="free" departSpeed="max" id="10454" type="HV">
		<route edges="genE318 genE307"/>
	</vehicle>
	<vehicle depart="587.37" departLane="free" departSpeed="max" id="10865" type="HV">
		<route edges="genE296 genE317"/>
	</vehicle>
	<vehicle depart="589.61" departLane="free" departSpeed="max" id="10387" type="HV">
		<route edges="genE318 genE297"/>
	</vehicle>
	<vehicle depart="591.82" departLane="free" departSpeed="max" id="10404" type="HV">
		<route edges="genE318 genE307"/>
	</vehicle>
	<vehicle depart="600.87" departLane="free" departSpeed="max" id="10981" type="CV">
		<route edges="genE316 genE297"/>
	</vehicle>
	<vehicle depart="603.09" departLane="free" departSpeed="max" id="11117" type="HV">
		<route edges="genE316 genE317"/>
	</vehicle>
	<vehicle depart="607.34" departLane="free" departSpeed="max" id="10326" type="HV">
		<route edges="genE318 genE297"/>
	</vehicle>
	<vehicle depart="613.25" departLane="free" departSpeed="max" id="10464" type="CV">
		<route edges="genE318 genE307"/>
	</vehicle>
	<vehicle depart="618.78" departLane="free" departSpeed="max" id="10760" type="HV">
		<route edges="genE296 genE317"/>
	</vehicle>
	<vehicle depart="628.81" departLane="free" departSpeed="max" id="10943" type="HV">
		<route edges="genE316 genE297"/>
	</vehicle>
	<vehicle depart="632.11" departLane="free" departSpeed="max" id="10603" type="HV">
		<route edges="genE296 genE307"/>
	</vehicle>
	<vehicle depart="634.37" departLane="free" departSpeed="max" id="10478" type="HV">
		<route edges="genE318 genE307"/>
	</vehicle>
	<vehicle depart="645.02" departLane="free" departSpeed="max" id="10338" type="HV">
		<route edges="genE318 genE297"/>
	</vehicle>
	<vehicle depart="645.57" departLane="free" departSpeed="max" id="10424" type="HV">
		<route edges="genE318 genE307"/>
	</vehicle>
	<vehicle depart="647.54" departLane="free" departSpeed="max" id="10486" type="HV">
		<route edges="genE318 genE307"/>
	</vehicle>
	<vehicle depart="648.31" departLane="free" departSpeed="max" id="10632" type="CV">
		<route edges="genE296 genE307"/>
	</vehicle>
	<vehicle depart="650.85" departLane="free" departSpeed="max" id="11037" type="HV">
		<route edges="genE316 genE297"/>
	</vehicle>
	<vehicle depart="657.67" departLane="free" departSpeed="max" id="10912" type="HV">
		<route edges="genE316 genE297"/>
	</vehicle>
	<vehicle depart="662.41" departLane="free" departSpeed="max" id="10659" type="CV">
		<route edges="genE296 genE307"/>
	</vehicle>
	<vehicle depart="664.98" departLane="free" departSpeed="max" id="10831" type="HV">
		<route edges="genE296 genE317"/>
	</vehicle>
	<vehicle depart="667.65" departLane="free" departSpeed="max" id="10608" type="HV">
		<route edges="genE296 genE307"/>
	</vehicle>
	<vehicle depart="669.17" departLane="free" departSpeed="max" id="10901" type="HV">
		<route edges="genE316 genE297"/>
	</vehicle>
	<vehicle depart="670.08" departLane="free" departSpeed="max" id="11080" type="CV">
		<route edges="genE316 genE317"/>
	</vehicle>
	<vehicle depart="671.2" departLane="free" departSpeed="max" id="10618" type="HV">
		<route edges="genE296 genE307"/>
	</vehicle>
	<vehicle depart="675.9" departLane="free" departSpeed="max" id="10742" type="HV">
		<route edges="genE296 genE317"/>
	</vehicle>
	<vehicle depart="684.63" departLane="free" departSpeed="max" id="10750" type="CV">
		<route edges="genE296 genE317"/>
	</vehicle>
	<vehicle depart="687.18" departLane="free" departSpeed="max" id="11055" type="HV">
		<route edges="genE316 genE297"/>
	</vehicle>
	<vehicle depart="687.61" departLane="free" departSpeed="max" id="10411" type="HV">
		<route edges="genE318 genE307"/>
	</vehicle>
	<vehicle depart="698.35" departLane="free" departSpeed="max" id="10885" type="HV">
		<route edges="genE296 genE317"/>
	</vehicle>
	<vehicle depart="703.25" departLane="free" departSpeed="max" id="11071" type="HV">
		<route edges="genE316 genE297"/>
	</vehicle>
	<vehicle depart="703.96" departLane="free" departSpeed="max" id="10791" type="HV">
		<route edges="genE296 genE317"/>
	</vehicle>
	<vehicle depart="704.47" departLane="free" departSpeed="max" id="11013" type="HV">
		<route edges="genE316 genE297"/>
	</vehicle>
	<vehicle depart="707.36" departLane="free" departSpeed="max" id="10638" type="HV">
		<route edges="genE296 genE307"/>
	</vehicle>
	<vehicle depart="709.36" departLane="free" departSpeed="max" id="11048" type="CV">
		<route edges="genE316 genE297"/>
	</vehicle>
	<vehicle depart="709.5" departLane="free" departSpeed="max" id="10467" type="HV">
		<route edges="genE318 genE307"/>
	</vehicle>
	<vehicle depart="720.54" departLane="free" departSpeed="max" id="10563" type="CV">
		<route edges="genE296 genE307"/>
	</vehicle>
	<vehicle depart="722.53" departLane="free" departSpeed="max" id="11144" type="HV">
		<route edges="genE316 genE317"/>
	</vehicle>
	<vehicle depart="725.92" departLane="free" departSpeed="max" id="10792" type="HV">
		<route edges="genE296 genE317"/>
	</vehicle>
	<vehicle depart="727.34" departLane="free" departSpeed="max" id="11095" type="CV">
		<route edges="genE316 genE317"/>
	</vehicle>
	<vehicle depart="729.61" departLane="free" departSpeed="max" id="10617" type="HV">
		<route edges="genE296 genE307"/>
	</vehicle>
	<vehicle depart="731.14" departLane="free" departSpeed="max" id="11038" type="HV">
		<route edges="genE316 genE297"/>
	</vehicle>
	<vehicle depart="736.41" departLane="free" departSpeed="max" id="10867" type="CV">
		<route edges="genE296 genE317"/>
	</vehicle>
	<vehicle depart="744.84" departLane="free" departSpeed="max" id="10532" type="CV">
		<route edges="genE296 genE307"/>
	</vehicle>
	<vehicle depart="760.67" departLane="free" departSpeed="max" id="10656" type="CV">
		<route edges="genE296 genE307"/>
	</vehicle>
	<vehicle depart="761.23" departLane="free" departSpeed="max" id="10721" type="HV">
		<route edges="genE296 genE317"/>
	</vehicle>
	<vehicle depart="765.03" departLane="free" departSpeed="max" id="10756" type="HV">
		<route edges="genE296 genE317"/>
	</vehicle>
	<vehicle depart="766.73" departLane="free" departSpeed="max" id="10849" type="CV">
		<route edges="genE296 genE317"/>
	</vehicle>
	<vehicle depart="773.12" departLane="free" departSpeed="max" id="11123" type="HV">
		<route edges="genE316 genE317"/>
	</vehicle>
	<vehicle depart="774.96" departLane="free" departSpeed="max" id="10723" type="HV">
		<route edges="genE296 genE317"/>
	</vehicle>
	<vehicle depart="775.72" departLane="free" departSpeed="max" id="10678" type="HV">
		<route edges="genE296 genE307"/>
	</vehicle>
	<vehicle depart="783.15" departLane="free" departSpeed="max" id="10435" type="HV">
		<route edges="genE318 genE307"/>
	</vehicle>
	<vehicle depart="783.75" departLane="free" departSpeed="max" id="11067" type="HV">
		<route edges="genE316 genE297"/>
	</vehicle>
	<vehicle depart="784.37" departLane="free" departSpeed="max" id="11050" type="HV">
		<route edges="genE316 genE297"/>
	</vehicle>
	<vehicle depart="788.37" departLane="free" departSpeed="max" id="10881" type="CV">
		<route edges="genE296 genE317"/>
	</vehicle>
	<vehicle depart="798.41" departLane="free" departSpeed="max" id="10828" type="HV">
		<route edges="genE296 genE317"/>
	</vehicle>
	<vehicle depart="799.63" departLane="free" departSpeed="max" id="10782" type="CV">
		<route edges="genE296 genE317"/>
	</vehicle>
	<vehicle depart="801.22" departLane="free" departSpeed="max" id="10423" type="HV">
		<route edges="genE318 genE307"/>
	</vehicle>
	<vehicle depart="802.28" departLane="free" departSpeed="max" id="10945" type="CV">
		<route edges="genE316 genE297"/>
	</vehicle>
	<vehicle depart="805.6" departLane="free" departSpeed="max" id="10744" type="CV">
		<route edges="genE296 genE317"/>
	</vehicle>
	<vehicle depart="805.74" departLane="free" departSpeed="max" id="10913" type="HV">
		<route edges="genE316 genE297"/>
	</vehicle>
	<vehicle depart="806.27" departLane="free" departSpeed="max" id="10883" type="HV">
		<route edges="genE296 genE317"/>
	</vehicle>
	<vehicle depart="809.08" departLane="free" departSpeed="max" id="10918" type="HV">
		<route edges="genE316 genE297"/>
	</vehicle>
	<vehicle depart="816.45" departLane="free" departSpeed="max" id="10850" type="HV">
		<route edges="genE296 genE317"/>
	</vehicle>
	<vehicle depart="823.6" departLane="free" departSpeed="max" id="10923" type="HV">
		<route edges="genE316 genE297"/>
	</vehicle>
	<vehicle depart="837.44" departLane="free" departSpeed="max" id="10973" type="HV">
		<route edges="genE316 genE297"/>
	</vehicle>
	<vehicle depart="837.7" departLane="free" departSpeed="max" id="10557" type="HV">
		<route edges="genE296 genE307"/>
	</vehicle>
	<vehicle depart="838.12" departLane="free" departSpeed="max" id="10677" type="CV">
		<route edges="genE296 genE307"/>
	</vehicle>
	<vehicle depart="838.66" departLane="free" departSpeed="max" id="10776" type="HV">
		<route edges="genE296 genE317"/>
	</vehicle>
	<vehicle depart="848.22" departLane="free" departSpeed="max" id="10558" type="HV">
		<route edges="genE296 genE307"/>
	</vehicle>
	<vehicle depart="858.66" departLane="free" departSpeed="max" id="10398" type="HV">
		<route edges="genE318 genE297"/>
	</vehicle>
	<vehicle depart="860.96" departLane="free" departSpeed="max" id="11081" type="CV">
		<route edges="genE316 genE317"/>
	</vehicle>
	<vehicle depart="861.26" departLane="free" departSpeed="max" id="11173" type="HV">
		<route edges="genE316 genE317"/>
	</vehicle>
	<vehicle depart="873.15" departLane="free" departSpeed="max" id="10429" type="CV">
		<route edges="genE318 genE307"/>
	</vehicle>
	<vehicle depart="875.6" departLane="free" departSpeed="max" id="10711" type="HV">
		<route edges="genE296 genE317"/>
	</vehicle>
	<vehicle depart="875.61" departLane="free" departSpeed="max" id="10440" type="HV">
		<route edges="genE318 genE307"/>
	</vehicle>
	<vehicle depart="888.13" departLane="free" departSpeed="max" id="11066" type="HV">
		<route edges="genE316 genE297"/>
	</vehicle>
	<vehicle depart="888.27" departLane="free" departSpeed="max" id="10471" type="HV">
		<route edges="genE318 genE307"/>
	</vehicle>
	<vehicle depart="893.79" departLane="free" departSpeed="max" id="11100" type="CV">
		<route edges="genE316 genE317"/>