<?xml version="1.0" ?>
<routes>
	<vType accel="0.8" decel="4.5" id="CV" length="5" maxSpeed="45" sigma="0.5"/>
	<vType accel="0.8" decel="4.5" id="HV" length="5" maxSpeed="40" sigma="0.5"/>
	<vehicle depart="4.8" departLane="free" departSpeed="max" id="3873" type="HV">
		<route edges="genE318 genE307"/>
	</vehicle>
	<vehicle depart="6.04" departLane="free" departSpeed="max" id="4517" type="HV">
		<route edges="genE296 genE317"/>
	</vehicle>
	<vehicle depart="8.7" departLane="free" departSpeed="max" id="4127" type="HV">
		<route edges="genE296 genE307"/>
	</vehicle>
	<vehicle depart="11.71" departLane="free" departSpeed="max" id="4227" type="HV">
		<route edges="genE296 genE307"/>
	</vehicle>
	<vehicle depart="12.17" departLane="free" departSpeed="max" id="4747" type="HV">
		<route edges="genE316 genE297"/>
	</vehicle>
	<vehicle depart="18.3" departLane="free" departSpeed="max" id="4603" type="HV">
		<route edges="genE296 genE317"/>
	</vehicle>
	<vehicle depart="18.64" departLane="free" departSpeed="max" id="4627" type="HV">
		<route edges="genE296 genE317"/>
	</vehicle>
	<vehicle depart="18.94" departLane="free" departSpeed="max" id="4532" type="HV">
		<route edges="genE296 genE317"/>
	</vehicle>
	<vehicle depart="19.62" departLane="free" departSpeed="max" id="4899" type="HV">
		<route edges="genE316 genE297"/>
	</vehicle>
	<vehicle depart="21.21" departLane="free" departSpeed="max" id="4625" type="HV">
		<route edges="genE296 genE317"/>
	</vehicle>
	<vehicle depart="22.42" departLane="free" departSpeed="max" id="4639" type="HV">
		<route edges="genE316 genE297"/>
	</vehicle>
	<vehicle depart="23.87" departLane="free" departSpeed="max" id="4276" type="HV">
		<route edges="genE296 genE307"/>
	</vehicle>
	<vehicle depart="25.71" departLane="free" departSpeed="max" id="3788" type="CV">
		<route edges="genE318 genE297"/>
	</vehicle>
	<vehicle depart="35.81" departLane="free" departSpeed="max" id="4841" type="HV">
		<route edges="genE316 genE297"/>
	</vehicle>
	<vehicle depart="37.86" departLane="free" departSpeed="max" id="5145" type="HV">
		<route edges="genE316 genE317"/>
	</vehicle>
	<vehicle depart="38.76" departLane="free" departSpeed="max" id="4330" type="HV">
		<route edges="genE296 genE307"/>
	</vehicle>
	<vehicle depart="42.17" departLane="free" departSpeed="max" id="4415" type="HV">
		<route edges="genE296 genE317"/>
	</vehicle>
	<vehicle depart="43.31" departLane="free" departSpeed="max" id="4719" type="HV">
		<route edges="genE316 genE297"/>
	</vehicle>
	<vehicle depart="46.74" departLane="free" departSpeed="max" id="4691" type="HV">
		<route edges="genE316 genE297"/>
	</vehicle>
	<vehicle depart="46.8" departLane="free" departSpeed="max" id="3755" type="HV">
		<route edges="genE318 genE297"/>
	</vehicle>
	<vehicle depart="49.06" departLane="free" departSpeed="max" id="4887" type="HV">
		<route edges="genE316 genE297"/>
	</vehicle>
	<vehicle depart="49.85" departLane="free" departSpeed="max" id="4422" type="HV">
		<route edges="genE296 genE317"/>
	</vehicle>
	<vehicle depart="50.43" departLane="free" departSpeed="max" id="4945" type="HV">
		<route edges="genE316 genE317"/>
	</vehicle>
	<vehicle depart="50.7" departLane="free" departSpeed="max" id="4022" type="HV">
		<route edges="genE318 genE307"/>
	</vehicle>
	<vehicle depart="54.11" departLane="free" departSpeed="max" id="4896" type="HV">
		<route edges="genE316 genE297"/>
	</vehicle>
	<vehicle depart="55.54" departLane="free" departSpeed="max" id="4929" type="HV">
		<route edges="genE316 genE317"/>
	</vehicle>
	<vehicle depart="66.83" departLane="free" departSpeed="max" id="5045" type="HV">
		<route edges="genE316 genE317"/>
	</vehicle>
	<vehicle depart="67.39" departLane="free" departSpeed="max" id="3940" type="HV">
		<route edges="genE318 genE307"/>
	</vehicle>
	<vehicle depart="69.75" departLane="free" departSpeed="max" id="5004" type="CV">
		<route edges="genE316 genE317"/>
	</vehicle>
	<vehicle depart="70.47" departLane="free" departSpeed="max" id="3989" type="CV">
		<route edges="genE318 genE307"/>
	</vehicle>
	<vehicle depart="73.45" departLane="free" departSpeed="max" id="4224" type="HV">
		<route edges="genE296 genE307"/>
	</vehicle>
	<vehicle depart="74.05" departLane="free" departSpeed="max" id="4058" type="HV">
		<route edges="genE318 genE307"/>
	</vehicle>
	<vehicle depart="75.03" departLane="free" departSpeed="max" id="4411" type="HV">
		<route edges="genE296 genE317"/>
	</vehicle>
	<vehicle depart="77.78" departLane="free" departSpeed="max" id="4117" type="CV">
		<route edges="genE296 genE307"/>
	</vehicle>
	<vehicle depart="80.4" departLane="free" departSpeed="max" id="4497" type="HV">
		<route edges="genE296 genE317"/>
	</vehicle>
	<vehicle depart="84.33" departLane="free" departSpeed="max" id="4682" type="HV">
		<route edges="genE316 genE297"/>
	</vehicle>
	<vehicle depart="84.36" departLane="free" departSpeed="max" id="4912" type="HV">
		<route edges="genE316 genE297"/>
	</vehicle>
	<vehicle depart="91.27" departLane="free" departSpeed="max" id="4687" type="HV">
		<route edges="genE316 genE297"/>
	</vehicle>
	<vehicle depart="91.43" departLane="free" departSpeed="max" id="4470" type="HV">
		<route edges="genE296 genE317"/>
	</vehicle>
	<vehicle depart="95.45" departLane="free" departSpeed="max" id="3912" type="HV">
		<route edges="genE318 genE307"/>
	</vehicle>
	<vehicle depart="98.63" departLane="free" departSpeed="max" id="5055" type="CV">
		<route edges="genE316 genE317"/>
	</vehicle>
	<vehicle depart="100.9" departLane="free" departSpeed="max" id="4477" type="CV">
		<route edges="genE296 genE317"/>
	</vehicle>
	<vehicle depart="105.13" departLane="free" departSpeed="max" id="4431" type="HV">
		<route edges="genE296 genE317"/>
	</vehicle>
	<vehicle depart="111.1" departLane="free" departSpeed="max" id="4297" type="HV">
		<route edges="genE296 genE307"/>
	</vehicle>
	<vehicle depart="115.0" departLane="free" departSpeed="max" id="4192" type="HV">
		<route edges="genE296 genE307"/>
	</vehicle>
	<vehicle depart="118.14" departLane="free" departSpeed="max" id="5132" type="CV">
		<route edges="genE316 genE317"/>
	</vehicle>
	<vehicle depart="122.06" departLane="free" departSpeed="max" id="5148" type="HV">
		<route edges="genE316 genE317"/>
	</vehicle>
	<vehicle depart="123.28" departLane="free" departSpeed="max" id="4026" type="HV">
		<route edges="genE318 genE307"/>
	</vehicle>
	<vehicle depart="123.85" departLane="free" departSpeed="max" id="4296" type="HV">
		<route edges="genE296 genE307"/>
	</vehicle>
	<vehicle depart="124.14" departLane="free" departSpeed="max" id="4083" type="HV">
		<route edges="genE296 genE307"/>
	</vehicle>
	<vehicle depart="126.06" departLane="free" departSpeed="max" id="4836" type="CV">
		<route edges="genE316 genE297"/>
	</vehicle>
	<vehicle depart="127.66" departLane="free" departSpeed="max" id="3968" type="HV">
		<route edges="genE318 genE307"/>
	</vehicle>
	<vehicle depart="128.91" departLane="free" departSpeed="max" id="3935" type="HV">
		<route edges="genE318 genE307"/>
	</vehicle>
	<vehicle depart="131.67" departLane="free" departSpeed="max" id="4754" type="HV">
		<route edges="genE316 genE297"/>
	</vehicle>
	<vehicle depart="132.53" departLane="free" departSpeed="max" id="4471" type="HV">
		<route edges="genE296 genE317"/>
	</vehicle>
	<vehicle depart="133.9" departLane="free" departSpeed="max" id="4237" type="HV">
		<route edges="genE296 genE307"/>
	</vehicle>
	<vehicle depart="135.77" departLane="free" departSpeed="max" id="3798" type="HV">
		<route edges="genE318 genE297"/>
	</vehicle>
	<vehicle depart="137.99" departLane="free" departSpeed="max" id="5026" type="HV">
		<route edges="genE316 genE317"/>
	</vehicle>
	<vehicle depart="140.44" departLane="free" departSpeed="max" id="3750" type="HV">
		<route edges="genE318 genE297"/>
	</vehicle>
	<vehicle depart="143.8" departLane="free" departSpeed="max" id="3752" type="HV">
		<route edges="genE318 genE297"/>
	</vehicle>
	<vehicle depart="148.44" departLane="free" departSpeed="max" id="4039" type="HV">
		<route edges="genE318 genE307"/>
	</vehicle>
	<vehicle depart="151.71" departLane="free" departSpeed="max" id="4703" type="HV">
		<route edges="genE316 genE297"/>
	</vehicle>
	<vehicle depart="152.97" departLane="free" departSpeed="max" id="5008" type="HV">
		<route edges="genE316 genE317"/>
	</vehicle>
	<vehicle depart="157.79" departLane="free" departSpeed="max" id="4198" type="HV">
		<route edges="genE296 genE307"/>
	</vehicle>
	<vehicle depart="159.23" departLane="free" departSpeed="max" id="4475" type="HV">
		<route edges="genE296 genE317"/>
	</vehicle>
	<vehicle depart="160.09" departLane="free" departSpeed="max" id="4622" type="HV">
		<route edges="genE296 genE317"/>
	</vehicle>
	<vehicle depart="163.65" departLane="free" departSpeed="max" id="4144" type="HV">
		<route edges="genE296 genE307"/>
	</vehicle>
	<vehicle depart="167.07" departLane="free" departSpeed="max" id="4775" type="HV">
		<route edges="genE316 genE297"/>
	</vehicle>
	<vehicle depart="168.22" departLane="free" departSpeed="max" id="4278" type="HV">
		<route edges="genE296 genE307"/>
	</vehicle>
	<vehicle depart="169.2" departLane="free" departSpeed="max" id="4441" type="HV">
		<route edges="genE296 genE317"/>
	</vehicle>
	<vehicle depart="172.53" departLane="free" departSpeed="max" id="4078" type="CV">
		<route edges="genE296 genE307"/>
	</vehicle>
	<vehicle depart="177.55" departLane="free" departSpeed="max" id="4202" type="HV">
		<route edges="genE296 genE307"/>
	</vehicle>
	<vehicle depart="180.44" departLane="free" departSpeed="max" id="4185" type="CV">
		<route edges="genE296 genE307"/>
	</vehicle>
	<vehicle depart="183.66" departLane="free" departSpeed="max" id="4025" type="CV">
		<route edges="genE318 genE307"/>
	</vehicle>
	<vehicle depart="183.84" departLane="free" departSpeed="max" id="4705" type="HV">
		<route edges="genE316 genE297"/>
	</vehicle>
	<vehicle depart="184.85" departLane="free" departSpeed="max" id="4334" type="HV">
		<route edges="genE296 genE317"/>
	</vehicle>
	<vehicle depart="185.87" departLane="free" departSpeed="max" id="4518" type="HV">
		<route edges="genE296 genE317"/>
	</vehicle>
	<vehicle depart="189.39" departLane="free" departSpeed="max" id="4444" type="HV">
		<route edges="genE296 genE317"/>
	</vehicle>
	<vehicle depart="190.02" departLane="free" departSpeed="max" id="4971" type="HV">
		<route edges="genE316 genE317"/>
	</vehicle>
	<vehicle depart="190.33" departLane="free" departSpeed="max" id="4779" type="HV">
		<route edges="genE316 genE297"/>
	</vehicle>
	<vehicle depart="190.39" departLane="free" departSpeed="max" id="4370" type="CV">
		<route edges="genE296 genE317"/>
	</vehicle>
	<vehicle depart="199.97" departLane="free" departSpeed="max" id="4575" type="HV">
		<route edges="genE296 genE317"/>
	</vehicle>
	<vehicle depart="201.8" departLane="free" departSpeed="max" id="3944" type="HV">
		<route edges="genE318 genE307"/>
	</vehicle>
	<vehicle depart="204.18" departLane="free" departSpeed="max" id="5093" type="HV">
		<route edges="genE316 genE317"/>
	</vehicle>
	<vehicle depart="206.07" departLane="free" departSpeed="max" id="4428" type="HV">
		<route edges="genE296 genE317"/>
	</vehicle>
	<vehicle depart="207.94" departLane="free" departSpeed="max" id="3796" type="HV">
		<route edges="genE318 genE297"/>
	</vehicle>
	<vehicle depart="207.95" departLane="free" departSpeed="max" id="3812" type="CV">
		<route edges="genE318 genE297"/>
	</vehicle>
	<vehicle depart="208.05" departLane="free" departSpeed="max" id="4536" type="HV">
		<route edges="genE296 genE317"/>
	</vehicle>
	<vehicle depart="210.18" departLane="free" departSpeed="max" id="4446" type="HV">
		<route edges="genE296 genE317"/>
	</vehicle>
	<vehicle depart="210.93" departLane="free" departSpeed="max" id="3913" type="HV">
		<route edges="genE318 genE307"/>
	</vehicle>
	<vehicle depart="213.69" departLane="free" departSpeed="max" id="4100" type="HV">
		<route edges="genE296 genE307"/>
	</vehicle>
	<vehicle depart="214.7" departLane="free" departSpeed="max" id="4980" type="HV">
		<route edges="genE316 genE317"/>
	</vehicle>
	<vehicle depart="221.8" departLane="free" departSpeed="max" id="4474" type="HV">
		<route edges="genE296 genE317"/>
	</vehicle>
	<vehicle depart="223.06" departLane="free" departSpeed="max" id="4035" type="HV">
		<route edges="genE318 genE307"/>
	</vehicle>
	<vehicle depart="224.26" departLane="free" departSpeed="max" id="4948" type="HV">
		<route edges="genE316 genE317"/>
	</vehicle>
	<vehicle depart="225.97" departLane="free" departSpeed="max" id="4159" type="HV">
		<route edges="genE296 genE307"/>
	</vehicle>
	<vehicle depart="227.5" departLane="free" departSpeed="max" id="4576" type="HV">
		<route edges="genE296 genE317"/>
	</vehicle>
	<vehicle depart="232.33" departLane="free" departSpeed="max" id="4548" type="CV">
		<route edges="genE296 genE317"/>
	</vehicle>
	<vehicle depart="237.32" departLane="free" departSpeed="max" id="4954" type="CV">
		<route edges="genE316 genE317"/>
	</vehicle>
	<vehicle depart="238.46" departLane="free" departSpeed="max" id="4381" type="HV">
		<route edges="genE296 genE317"/>
	</vehicle>
	<vehicle depart="238.48" departLane="free" departSpeed="max" id="5009" type="HV">
		<route edges="genE316 genE317"/>
	</vehicle>
	<vehicle depart="239.84" departLane="free" departSpeed="max" id="4661" type="HV">
		<route edges="genE316 genE297"/>
	</vehicle>
	<vehicle depart="243.99" departLane="free" departSpeed="max" id="4121" type="HV">
		<route edges="genE296 genE307"/>
	</vehicle>
	<vehicle depart="249.57" departLane="free" departSpeed="max" id="4814" type="HV">
		<route edges="genE316 genE297"/>
	</vehicle>
	<vehicle depart="256.24" departLane="free" departSpeed="max" id="3960" type="HV">
		<route edges="genE318 genE307"/>
	</vehicle>
	<vehicle depart="256.49" departLane="free" departSpeed="max" id="4665" type="HV">
		<route edges="genE316 genE297"/>
	</vehicle>
	<vehicle depart="262.25" departLane="free" departSpeed="max" id="4463" type="HV">
		<route edges="genE296 genE317"/>
	</vehicle>
	<vehicle depart="262.81" departLane="free" departSpeed="max" id="3754" type="HV">
		<route edges="genE318 genE297"/>
	</vehicle>
	<vehicle depart="266.39" departLane="free" departSpeed="max" id="4581" type="HV">
		<route edges="genE296 genE317"/>
	</vehicle>
	<vehicle depart="266.79" departLane="free" departSpeed="max" id="4652" type="HV">
		<route edges="genE316 genE297"/>
	</vehicle>
	<vehicle depart="269.94" departLane="free" departSpeed="max" id="4493" type="CV">
		<route edges="genE296 genE317"/>
	</vehicle>
	<vehicle depart="273.15" departLane="free" departSpeed="max" id="4520" type="HV">
		<route edges="genE296 genE317"/>
	</vehicle>
	<vehicle depart="273.56" departLane="free" departSpeed="max" id="4266" type="HV">
		<route edges="genE296 genE307"/>
	</vehicle>
	<vehicle depart="274.31" departLane="free" departSpeed="max" id="4286" type="HV">
		<route edges="genE296 genE307"/>
	</vehicle>
	<vehicle depart="276.25" departLane="free" departSpeed="max" id="5069" type="CV">
		<route edges="genE316 genE317"/>
	</vehicle>
	<vehicle depart="277.36" departLane="free" departSpeed="max" id="4585" type="CV">
		<route edges="genE296 genE317"/>
	</vehicle>
	<vehicle depart="278.92" departLane="free" departSpeed="max" id="3769" type="HV">
		<route edges="genE318 genE297"/>
	</vehicle>
	<vehicle depart="279.07" departLane="free" departSpeed="max" id="3833" type="HV">
		<route edges="genE318 genE297"/>
	</vehicle>
	<vehicle depart="280.4" departLane="free" departSpeed="max" id="3879" type="HV">
		<route edges="genE318 genE307"/>
	</vehicle>
	<vehicle depart="284.99" departLane="free" departSpeed="max" id="4900" type="HV">
		<route edges="genE316 genE297"/>
	</vehicle>
	<vehicle depart="290.39" departLane="free" departSpeed="max" id="4852" type="HV">
		<route edges="genE316 genE297"/>
	</vehicle>
	<vehicle depart="293.72" departLane="free" departSpeed="max" id="4469" type="HV">
		<route edges="genE296 genE317"/>
	</vehicle>
	<vehicle depart="301.21" departLane="free" departSpeed="max" id="4226" type="CV">
		<route edges="genE296 genE307"/>
	</vehicle>
	<vehicle depart="302.51" departLane="free" departSpeed="max" id="4967" type="HV">
		<route edges="genE316 genE317"/>
	</vehicle>
	<vehicle depart="304.05" departLane="free" departSpeed="max" id="4657" type="HV">
		<route edges="genE316 genE297"/>
	</vehicle>
	<vehicle depart="304.51" departLane="free" departSpeed="max" id="3819" type="HV">
		<route edges="genE318 genE297"/>
	</vehicle>
	<vehicle depart="306.17" departLane="free" departSpeed="max" id="5129" type="HV">
		<route edges="genE316 genE317"/>
	</vehicle>
	<vehicle depart="308.42" departLane="free" departSpeed="max" id="4527" type="CV">
		<route edges="genE296 genE317"/>
	</vehicle>
	<vehicle depart="309.74" departLane="free" departSpeed="max" id="4981" type="CV">
		<route edges="genE316 genE317"/>
	</vehicle>
	<vehicle depart="311.7" departLane="free" departSpeed="max" id="4824" type="HV">
		<route edges="genE316 genE297"/>
	</vehicle>
	<vehicle depart="312.07" departLane="free" departSpeed="max" id="4395" type="HV">
		<route edges="genE296 genE317"/>
	</vehicle>
	<vehicle depart="315.69" departLane="free" departSpeed="max" id="4108" type="HV">
		<route edges="genE296 genE307"/>
	</vehicle>
	<vehicle depart="316.39" departLane="free" departSpeed="max" id="4568" type="HV">
		<route edges="genE296 genE317"/>
	</vehicle>
	<vehicle depart="317.05" departLane="free" departSpeed="max" id="5029" type="CV">
		<route edges="genE316 genE317"/>
	</vehicle>
	<vehicle depart="322.77" departLane="free" departSpeed="max" id="3844" type="HV">
		<route edges="genE318 genE297"/>
	</vehicle>
	<vehicle depart="329.38" departLane="free" departSpeed="max" id="4666" type="CV">
		<route edges="genE316 genE297"/>
	</vehicle>
	<vehicle depart="332.36" departLane="free" departSpeed="max" id="4366" type="HV">
		<route edges="genE296 genE317"/>
	</vehicle>
	<vehicle depart="333.35" departLane="free" departSpeed="max" id="3892" type="HV">
		<route edges="genE318 genE307"/>
	</vehicle>
	<vehicle depart="334.98" departLane="free" departSpeed="max" id="4351" type="CV">
		<route edges="genE296 genE317"/>
	</vehicle>
	<vehicle depart="335.52" departLane="free" departSpeed="max" id="4009" type="CV">
		<route edges="genE318 genE307"/>
	</vehicle>
	<vehicle depart="339.83" departLane="free" departSpeed="max" id="5032" type="HV">
		<route edges="genE316 genE317"/>
	</vehicle>
	<vehicle depart="340.46" departLane="free" departSpeed="max" id="3997" type="HV">
		<route edges="genE318 genE307"/>
	</vehicle>
	<vehicle depart="343.81" departLane="free" departSpeed="max" id="4756" type="HV">
		<route edges="genE316 genE297"/>
	</vehicle>
	<vehicle depart="344.86" departLane="free" departSpeed="max" id="4235" type="HV">
		<route edges="genE296 genE307"/>
	</vehicle>
	<vehicle depart="348.63" departLane="free" departSpeed="max" id="4303" type="CV">
		<route edges="genE296 genE307"/>
	</vehicle>
	<vehicle depart="351.54" departLane="free" departSpeed="max" id="5098" type="HV">
		<route edges="genE316 genE317"/>
	</vehicle>
	<vehicle depart="352.43" departLane="free" departSpeed="max" id="3797" type="CV">
		<route edges="genE318 genE297"/>
	</vehicle>
	<vehicle depart="364.29" departLane="free" departSpeed="max" id="4456" type="CV">
		<route edges="genE296 genE317"/>
	</vehicle>
	<vehicle depart="366.62" departLane="free" departSpeed="max" id="5036" type="HV">
		<route edges="genE316 genE317"/>
	</vehicle>
	<vehicle depart="371.93" departLane="free" departSpeed="max" id="4883" type="HV">
		<route edges="genE316 genE297"/>
	</vehicle>
	<vehicle depart="377.26" departLane="free" departSpeed="max" id="4082" type="HV">
		<route edges="genE296 genE307"/>
	</vehicle>
	<vehicle depart="381.55" departLane="free" departSpeed="max" id="5157" type="HV">
		<route edges="genE316 genE317"/>
	</vehicle>
	<vehicle depart="387.61" departLane="free" departSpeed="max" id="4206" type="HV">
		<route edges="genE296 genE307"/>
	</vehicle>
	<vehicle depart="389.14" departLane="free" departSpeed="max" id="4694" type="HV">
		<route edges="genE316 genE297"/>
	</vehicle>
	<vehicle depart="391.07" departLane="free" departSpeed="max" id="4168" type="HV">
		<route edges="genE296 genE307"/>
	</vehicle>
	<vehicle depart="392.58" departLane="free" departSpeed="max" id="4547" type="CV">
		<route edges="genE296 genE317"/>
	</vehicle>
	<vehicle depart="397.55" departLane="free" departSpeed="max" id="5117" type="HV">
		<route edges="genE316 genE317"/>
	</vehicle>
	<vehicle depart="400.61" departLane="free" departSpeed="max" id="4074" type="CV">
		<route edges="genE296 genE307"/>
	</vehicle>
	<vehicle depart="404.57" departLane="free" departSpeed="max" id="4372" type="HV">
		<route edges="genE296 genE317"/>
	</vehicle>
	<vehicle depart="406.36" departLane="free" departSpeed="max" id="3839" type="CV">
		<route edges="genE318 genE297"/>
	</vehicle>
	<vehicle depart="409.62" departLane="free" departSpeed="max" id="4094" type="CV">
		<route edges="genE296 genE307"/>
	</vehicle>
	<vehicle depart="412.11" departLane="free" departSpeed="max" id="4283" type="HV">
		<route edges="genE296 genE307"/>
	</vehicle>
	<vehicle depart="415.04" departLane="free" departSpeed="max" id="3848" type="HV">
		<route edges="genE318 genE297"/>
	</vehicle>
	<vehicle depart="415.32" departLane="free" departSpeed="max" id="4616" type="HV">
		<route edges="genE296 genE317"/>
	</vehicle>
	<vehicle depart="421.94" departLane="free" departSpeed="max" id="4847" type="HV">
		<route edges="genE316 genE297"/>
	</vehicle>
	<vehicle depart="423.04" departLane="free" departSpeed="max" id="4710" type="HV">
		<route edges="genE316 genE297"/>
	</vehicle>
	<vehicle depart="423.37" departLane="free" departSpeed="max" id="4045" type="HV">
		<route edges="genE318 genE307"/>
	</vehicle>
	<vehicle depart="429.56" departLane="free" departSpeed="max" id="4048" type="HV">
		<route edges="genE318 genE307"/>
	</vehicle>
	<vehicle depart="430.32" departLane="free" departSpeed="max" id="3743" type="HV">
		<route edges="genE318 genE297"/>
	</vehicle>
	<vehicle depart="434.81" departLane="free" departSpeed="max" id="4424" type="HV">
		<route edges="genE296 genE317"/>
	</vehicle>
	<vehicle depart="436.78" departLane="free" departSpeed="max" id="4869" type="HV">
		<route edges="genE316 genE297"/>
	</vehicle>
	<vehicle depart="437.55" departLane="free" departSpeed="max" id="4358" type="HV">
		<route edges="genE296 genE317"/>
	</vehicle>
	<vehicle depart="448.36" departLane="free" departSpeed="max" id="4288" type="CV">
		<route edges="genE296 genE307"/>
	</vehicle>
	<vehicle depart="448.52" departLane="free" departSpeed="max" id="5126" type="HV">
		<route edges="genE316 genE317"/>
	</vehicle>
	<vehicle depart="455.51" departLane="free" departSpeed="max" id="4167" type="HV">
		<route edges="genE296 genE307"/>
	</vehicle>
	<vehicle depart="456.82" departLane="free" departSpeed="max" id="3782" type="CV">
		<route edges="genE318 genE297"/>
	</vehicle>
	<vehicle depart="461.5" departLane="free" departSpeed="max" id="4081" type="HV">
		<route edges="genE296 genE307"/>
	</vehicle>
	<vehicle depart="462.04" departLane="free" departSpeed="max" id="4506" type="HV">
		<route edges="genE296 genE317"/>
	</vehicle>
	<vehicle depart="462.54" departLane="free" departSpeed="max" id="4063" type="CV">
		<route edges="genE318 genE307"/>
	</vehicle>
	<vehicle depart="463.72" departLane="free" departSpeed="max" id="4689" type="HV">
		<route edges="genE316 genE297"/>
	</vehicle>
	<vehicle depart="466.74" departLane="free" departSpeed="max" id="4037" type="HV">
		<route edges="genE318 genE307"/>
	</vehicle>
	<vehicle depart="467.9" departLane="free" departSpeed="max" id="4530" type="HV">
		<route edges="genE296 genE317"/>
	</vehicle>
	<vehicle depart="469.23" departLane="free" departSpeed="max" id="4348" type="HV">
		<route edges="genE296 genE317"/>
	</vehicle>
	<vehicle depart="471.23" departLane="free" departSpeed="max" id="4015" type="HV">
		<route edges="genE318 genE307"/>
	</vehicle>
	<vehicle depart="472.28" departLane="free" departSpeed="max" id="4062" type="HV">
		<route edges="genE318 genE307"/>
	</vehicle>
	<vehicle depart="473.69" departLane="free" departSpeed="max" id="3955" type="HV">
		<route edges="genE318 genE307"/>
	</vehicle>
	<vehicle depart="474.55" departLane="free" departSpeed="max" id="3946" type="HV">
		<route edges="genE318 genE307"/>
	</vehicle>
	<vehicle depart="475.83" departLane="free" departSpeed="max" id="4282" type="HV">
		<route edges="genE296 genE307"/>
	</vehicle>
	<vehicle depart="476.79" departLane="free" departSpeed="max" id="4936" type="HV">
		<route edges="genE316 genE317"/>
	</vehicle>
	<vehicle depart="477.61" departLane="free" departSpeed="max" id="4664" type="HV">
		<route edges="genE316 genE297"/>
	</vehicle>
	<vehicle depart="477.82" departLane="free" departSpeed="max" id="3851" type="HV">
		<route edges="genE318 genE297"/>
	</vehicle>
	<vehicle depart="487.35" departLane="free" departSpeed="max" id="4651" type="HV">
		<route edges="genE316 genE297"/>
	</vehicle>
	<vehicle depart="492.24" departLane="free" departSpeed="max" id="4609" type="HV">
		<route edges="genE296 genE317"/>
	</vehicle>
	<vehicle depart="493.91" departLane="free" departSpeed="max" id="4238" type="HV">
		<route edges="genE296 genE307"/>
	</vehicle>
	<vehicle depart="498.55" departLane="free" departSpeed="max" id="4085" type="HV">
		<route edges="genE296 genE307"/>
	</vehicle>
	<vehicle depart="501.41" departLane="free" departSpeed="max" id="4253" type="CV">
		<route edges="genE296 genE307"/>
	</vehicle>
	<vehicle depart="503.35" departLane="free" departSpeed="max" id="5013" type="HV">
		<route edges="genE316 genE317"/>
	</vehicle>
	<vehicle depart="505.78" departLane="free" departSpeed="max" id="4935" type="CV">
		<route edges="genE316 genE317"/>
	</vehicle>
	<vehicle depart="505.96" departLane="free" departSpeed="max" id="4076" type="HV">
		<route edges="genE296 genE307"/>
	</vehicle>
	<vehicle depart="507.75" departLane="free" departSpeed="max" id="4368" type="HV">
		<route edges="genE296 genE317"/>
	</vehicle>
	<vehicle depart="508.82" departLane="free" departSpeed="max" id="4915" type="HV">
		<route edges="genE316 genE297"/>
	</vehicle>
	<vehicle depart="518.44" departLane="free" departSpeed="max" id="4557" type="HV">
		<route edges="genE296 genE317"/>
	</vehicle>
	<vehicle depart="519.74" departLane="free" departSpeed="max" id="4040" type="CV">
		<route edges="genE318 genE307"/>
	</vehicle>
	<vehicle depart="523.87" departLane="free" departSpeed="max" id="4925" type="HV">
		<route edges="genE316 genE317"/>
	</vehicle>
	<vehicle depart="525.7" departLane="free" departSpeed="max" id="4183" type="HV">
		<route edges="genE296 genE307"/>
	</vehicle>
	<vehicle depart="526.0" departLane="free" departSpeed="max" id="5156" type="CV">
		<route edges="genE316 genE317"/>
	</vehicle>
	<vehicle depart="532.51" departLane="free" departSpeed="max" id="3993" type="HV">
		<route edges="genE318 genE307"/>
	</vehicle>
	<vehicle depart="533.12" departLane="free" departSpeed="max" id="4678" type="CV">
		<route edges="genE316 genE297"/>
	</vehicle>
	<vehicle depart="536.18" departLane="free" departSpeed="max" id="3976" type="HV">
		<route edges="genE318 genE307"/>
	</vehicle>
	<vehicle depart="542.56" departLane="free" departSpeed="max" id="5128" type="HV">
		<route edges="genE316 genE317"/>
	</vehicle>
	<vehicle depart="545.23" departLane="free" departSpeed="max" id="4165" type="HV">
		<route edges="genE296 genE307"/>
	</vehicle>
	<vehicle depart="547.49" departLane="free" departSpeed="max" id="4842" type="HV">
		<route edges="genE316 genE297"/>
	</vehicle>
	<vehicle depart="547.54" departLane="free" departSpeed="max" id="5111" type="HV">
		<route edges="genE316 genE317"/>
	</vehicle>
	<vehicle depart="552.17" departLane="free" departSpeed="max" id="4498" type="HV">
		<route edges="genE296 genE317"/>
	</vehicle>
	<vehicle depart="559.98" departLane="free" departSpeed="max" id="4119" type="HV">
		<route edges="genE296 genE307"/>
	</vehicle>
	<vehicle depart="562.91" departLane="free" departSpeed="max" id="4397" type="HV">
		<route edges="genE296 genE317"/>
	</vehicle>
	<vehicle depart="564.55" departLane="free" departSpeed="max" id="4700" type="HV">
		<route edges="genE316 genE297"/>
	</vehicle>
	<vehicle depart="565.63" departLane="free" departSpeed="max" id="4908" type="CV">
		<route edges="genE316 genE297"/>
	</vehicle>
	<vehicle depart="569.5" departLane="free" departSpeed="max" id="4373" type="HV">
		<route edges="genE296 genE317"/>
	</vehicle>
	<vehicle depart="569.97" departLane="free" departSpeed="max" id="4132" type="HV">
		<route edges="genE296 genE307"/>
	</vehicle>
	<vehicle depart="571.13" departLane="free" departSpeed="max" id="4643" type="HV">
		<route edges="genE316 genE297"/>
	</vehicle>
	<vehicle depart="571.8" departLane="free" departSpeed="max" id="3761" type="HV">
		<route edges="genE318 genE297"/>
	</vehicle>
	<vehicle depart="574.01" departLane="free" departSpeed="max" id="5016" type="CV">
		<route edges="genE316 genE317"/>
	</vehicle>
	<vehicle depart="574.25" departLane="free" departSpeed="max" id="4218" type="HV">
		<route edges="genE296 genE307"/>
	</vehicle>
	<vehicle depart="574.95" departLane="free" departSpeed="max" id="4882" type="HV">
		<route edges="genE316 genE297"/>
	</vehicle>
	<vehicle depart="578.1" departLane="free" departSpeed="max" id="4599" type="HV">
		<route edges="genE296 genE317"/>
	</vehicle>
	<vehicle depart="582.66" departLane="free" departSpeed="max" id="4155" type="HV">
		<route edges="genE296 genE307"/>
	</vehicle>
	<vehicle depart="584.76" departLane="free" departSpeed="max" id="5096" type="HV">
		<route edges="genE316 genE317"/>
	</vehicle>
	<vehicle depart="585.72" departLane="free" departSpeed="max" id="4881" type="CV">
		<route edges="genE316 genE297"/>
	</vehicle>
	<vehicle depart="586.63" departLane="free" departSpeed="max" id="4718" type="HV">