<?xml version="1.0" ?>
<routes>
	<vType accel="0.8" decel="4.5" id="CV" length="5" maxSpeed="45" sigma="0.5"/>
	<vType accel="0.8" decel="4.5" id="HV" length="5" maxSpeed="40" sigma="0.5"/>
	<vehicle depart="18.97" departLane="free" departSpeed="max" id="744" type="HV">
		<route edges="genE296 genE317"/>
	</vehicle>
	<vehicle depart="37.7" departLane="free" departSpeed="max" id="522" type="HV">
		<route edges="genE318 genE297"/>
	</vehicle>
	<vehicle depart="46.9" departLane="free" departSpeed="max" id="567" type="HV">
		<route edges="genE318 genE307"/>
	</vehicle>
	<vehicle depart="47.95" departLane="free" departSpeed="max" id="766" type="HV">
		<route edges="genE316 genE297"/>
	</vehicle>
	<vehicle depart="54.47" departLane="free" departSpeed="max" id="539" type="CV">
		<route edges="genE318 genE297"/>
	</vehicle>
	<vehicle depart="70.72" departLane="free" departSpeed="max" id="593" type="HV">
		<route edges="genE318 genE307"/>
	</vehicle>
	<vehicle depart="73.98" departLane="free" departSpeed="max" id="583" type="HV">
		<route edges="genE318 genE307"/>
	</vehicle>
	<vehicle depart="76.05" departLane="free" departSpeed="max" id="706" type="HV">
		<route edges="genE296 genE317"/>
	</vehicle>
	<vehicle depart="76.76" departLane="free" departSpeed="max" id="547" type="HV">
		<route edges="genE318 genE297"/>
	</vehicle>
	<vehicle depart="88.88" departLane="free" departSpeed="max" id="823" type="HV">
		<route edges="genE316 genE297"/>
	</vehicle>
	<vehicle depart="89.32" departLane="free" departSpeed="max" id="683" type="CV">
		<route edges="genE296 genE317"/>
	</vehicle>
	<vehicle depart="92.51" departLane="free" departSpeed="max" id="901" type="HV">
		<route edges="genE316 genE317"/>
	</vehicle>
	<vehicle depart="108.25" departLane="free" departSpeed="max" id="690" type="HV">
		<route edges="genE296 genE317"/>
	</vehicle>
	<vehicle depart="108.86" departLane="free" departSpeed="max" id="867" type="HV">
		<route edges="genE316 genE317"/>
	</vehicle>
	<vehicle depart="110.09" departLane="free" departSpeed="max" id="878" type="HV">
		<route edges="genE316 genE317"/>
	</vehicle>
	<vehicle depart="145.86" departLane="free" departSpeed="max" id="643" type="HV">
		<route edges="genE296 genE307"/>
	</vehicle>
	<vehicle depart="153.28" departLane="free" departSpeed="max" id="542" type="HV">
		<route edges="genE318 genE297"/>
	</vehicle>
	<vehicle depart="153.62" departLane="free" departSpeed="max" id="561" type="HV">
		<route edges="genE318 genE307"/>
	</vehicle>
	<vehicle depart="159.54" departLane="free" departSpeed="max" id="645" type="HV">
		<route edges="genE296 genE307"/>
	</vehicle>
	<vehicle depart="167.76" departLane="free" departSpeed="max" id="563" type="HV">
		<route edges="genE318 genE307"/>
	</vehicle>
	<vehicle depart="186.07" departLane="free" departSpeed="max" id="843" type="HV">
		<route edges="genE316 genE317"/>
	</vehicle>
	<vehicle depart="240.8" departLane="free" departSpeed="max" id="530" type="HV">
		<route edges="genE318 genE297"/>
	</vehicle>
	<vehicle depart="244.71" departLane="free" departSpeed="max" id="815" type="HV">
		<route edges="genE316 genE297"/>
	</vehicle>
	<vehicle depart="259.99" departLane="free" departSpeed="max" id="695" type="CV">
		<route edges="genE296 genE317"/>
	</vehicle>
	<vehicle depart="263.8" departLane="free" departSpeed="max" id="802" type="HV">
		<route edges="genE316 genE297"/>
	</vehicle>
	<vehicle depart="275.22" departLane="free" departSpeed="max" id="885" type="HV">
		<route edges="genE316 genE317"/>
	</vehicle>
	<vehicle depart="276.13" departLane="free" departSpeed="max" id="844" type="CV">
		<route edges="genE316 genE317"/>
	</vehicle>
	<vehicle depart="278.45" departLane="free" departSpeed="max" id="614" type="HV">
		<route edges="genE296 genE307"/>
	</vehicle>
	<vehicle depart="278.73" departLane="free" departSpeed="max" id="775" type="HV">
		<route edges="genE316 genE297"/>
	</vehicle>
	<vehicle depart="284.18" departLane="free" departSpeed="max" id="605" type="HV">
		<route edges="genE296 genE307"/>
	</vehicle>
	<vehicle depart="302.92" departLane="free" departSpeed="max" id="650" type="HV">
		<route edges="genE296 genE307"/>
	</vehicle>
	<vehicle depart="302.97" departLane="free" departSpeed="max" id="543" type="HV">
		<route edges="genE318 genE297"/>
	</vehicle>
	<vehicle depart="306.3" departLane="free" departSpeed="max" id="657" type="HV">
		<route edges="genE296 genE307"/>
	</vehicle>
	<vehicle depart="318.37" departLane="free" departSpeed="max" id="872" type="HV">
		<route edges="genE316 genE317"/>
	</vehicle>
	<vehicle depart="335.03" departLane="free" departSpeed="max" id="589" type="HV">
		<route edges="genE318 genE307"/>
	</vehicle>
	<vehicle depart="340.8" departLane="free" departSpeed="max" id="578" type="CV">
		<route edges="genE318 genE307"/>
	</vehicle>
	<vehicle depart="342.66" departLane="free" departSpeed="max" id="557" type="HV">
		<route edges="genE318 genE307"/>
	</vehicle>
	<vehicle depart="374.7" departLane="free" departSpeed="max" id="707" type="HV">
		<route edges="genE296 genE317"/>
	</vehicle>
	<vehicle depart="389.08" departLane="free" departSpeed="max" id="663" type="CV">
		<route edges="genE296 genE307"/>
	</vehicle>
	<vehicle depart="395.17" departLane="free" departSpeed="max" id="644" type="HV">
		<route edges="genE296 genE307"/>
	</vehicle>
	<vehicle depart="395.23" departLane="free" departSpeed="max" id="687" type="HV">
		<route edges="genE296 genE317"/>
	</vehicle>
	<vehicle depart="441.7" departLane="free" departSpeed="max" id="652" type="HV">
		<route edges="genE296 genE307"/>
	</vehicle>
	<vehicle depart="441.84" departLane="free" departSpeed="max" id="516" type="HV">
		<route edges="genE318 genE297"/>
	</vehicle>
	<vehicle depart="442.81" departLane="free" departSpeed="max" id="646" type="HV">
		<route edges="genE296 genE307"/>
	</vehicle>
	<vehicle depart="470.56" departLane="free" departSpeed="max" id="746" type="HV">
		<route edges="genE296 genE317"/>
	</vehicle>
	<vehicle depart="471.75" departLane="free" departSpeed="max" id="699" type="HV">
		<route edges="genE296 genE317"/>
	</vehicle>
	<vehicle depart="482.04" departLane="free" departSpeed="max" id="588" type="CV">
		<route edges="genE318 genE307"/>
	</vehicle>
	<vehicle depart="510.67" departLane="free" departSpeed="max" id="712" type="HV">
		<route edges="genE296 genE317"/>
	</vehicle>
	<vehicle depart="523.24" departLane="free" departSpeed="max" id="723" type="CV">
		<route edges="genE296 genE317"/>
	</vehicle>
	<vehicle depart="527.29" departLane="free" departSpeed="max" id="566" type="HV">
		<route edges="genE318 genE307"/>
	</vehicle>
	<vehicle depart="530.66" departLane="free" departSpeed="max" id="703" type="CV">
		<route edges="genE296 genE317"/>
	</vehicle>
	<vehicle depart="531.4" departLane="free" departSpeed="max" id="832" type="CV">
		<route edges="genE316 genE297"/>
	</vehicle>
	<vehicle depart="531.53" departLane="free" departSpeed="max" id="868" type="HV">
		<route edges="genE316 genE317"/>
	</vehicle>
	<vehicle depart="533.42" departLane="free" departSpeed="max" id="741" type="HV">
		<route edges="genE296 genE317"/>
	</vehicle>
	<vehicle depart="541.66" departLane="free" departSpeed="max" id="580" type="HV">
		<route edges="genE318 genE307"/>
	</vehicle>
	<vehicle depart="558.67" departLane="free" departSpeed="max" id="534" type="CV">
		<route edges="genE318 genE297"/>
	</vehicle>
	<vehicle depart="559.93" departLane="free" departSpeed="max" id="720" type="HV">
		<route edges="genE296 genE317"/>
	</vehicle>
	<vehicle depart="560.11" departLane="free" departSpeed="max" id="726" type="CV">
		<route edges="genE296 genE317"/>
	</vehicle>
	<vehicle depart="567.36" departLane="free" departSpeed="max" id="848" type="HV">
		<route edges="genE316 genE317"/>
	</vehicle>
	<vehicle depart="568.51" departLane="free" departSpeed="max" id="698" type="HV">
		<route edges="genE296 genE317"/>
	</vehicle>
	<vehicle depart="569.9" departLane="free" departSpeed="max" id="638" type="HV">
		<route edges="genE296 genE307"/>
	</vehicle>
	<vehicle depart="589.76" departLane="free" departSpeed="max" id="753" type="HV">
		<route edges="genE296 genE317"/>
	</vehicle>
	<vehicle depart="591.35" departLane="free" departSpeed="max" id="630" type="HV">
		<route edges="genE296 genE307"/>
	</vehicle>
	<vehicle depart="612.07" departLane="free" departSpeed="max" id="615" type="HV">
		<route edges="genE296 genE307"/>
	</vehicle>
	<vehicle depart="629.06" departLane="free" departSpeed="max" id="731" type="HV">
		<route edges="genE296 genE317"/>
	</vehicle>
	<vehicle depart="636.26" departLane="free" departSpeed="max" id="525" type="CV">
		<route edges="genE318 genE297"/>
	</vehicle>
	<vehicle depart="637.6" departLane="free" departSpeed="max" id="767" type="HV">
		<route edges="genE316 genE297"/>
	</vehicle>
	<vehicle depart="637.9" departLane="free" departSpeed="max" id="734" type="HV">
		<route edges="genE296 genE317"/>
	</vehicle>
	<vehicle depart="639.44" departLane="free" departSpeed="max" id="758" type="HV">
		<route edges="genE316 genE297"/>
	</vehicle>
	<vehicle depart="639.62" departLane="free" departSpeed="max" id="728" type="HV">
		<route edges="genE296 genE317"/>
	</vehicle>
	<vehicle depart="647.45" departLane="free" departSpeed="max" id="565" type="CV">
		<route edges="genE318 genE307"/>
	</vehicle>
	<vehicle depart="648.9" departLane="free" departSpeed="max" id="710" type="HV">
		<route edges="genE296 genE317"/>
	</vehicle>
	<vehicle depart="651.39" departLane="free" departSpeed="max" id="549" type="HV">
		<route edges="genE318 genE307"/>
	</vehicle>
	<vehicle depart="652.36" departLane="free" departSpeed="max" id="680" type="HV">
		<route edges="genE296 genE317"/>
	</vehicle>
	<vehicle depart="660.4" departLane="free" departSpeed="max" id="667" type="CV">
		<route edges="genE296 genE307"/>
	</vehicle>
	<vehicle depart="668.8" departLane="free" departSpeed="max" id="635" type="HV">
		<route edges="genE296 genE307"/>
	</vehicle>
	<vehicle depart="673.42" departLane="free" departSpeed="max" id="685" type="CV">
		<route edges="genE296 genE317"/>
	</vehicle>
	<vehicle depart="688.12" departLane="free" departSpeed="max" id="724" type="HV">
		<route edges="genE296 genE317"/>
	</vehicle>
	<vehicle depart="694.15" departLane="free" departSpeed="max" id="599" type="HV">
		<route edges="genE318 genE307"/>
	</vehicle>
	<vehicle depart="714.0" departLane="free" departSpeed="max" id="696" type="CV">
		<route edges="genE296 genE317"/>
	</vehicle>
	<vehicle depart="731.24" departLane="free" departSpeed="max" id="595" type="HV">
		<route edges="genE318 genE307"/>
	</vehicle>
	<vehicle depart="736.94" departLane="free" departSpeed="max" id="655" type="HV">
		<route edges="genE296 genE307"/>
	</vehicle>
	<vehicle depart="755.92" departLane="free" departSpeed="max" id="541" type="HV">
		<route edges="genE318 genE297"/>
	</vehicle>
	<vehicle depart="764.85" departLane="free" departSpeed="max" id="660" type="HV">
		<route edges="genE296 genE307"/>
	</vehicle>
	<vehicle depart="766.72" departLane="free" departSpeed="max" id="705" type="HV">
		<route edges="genE296 genE317"/>
	</vehicle>
	<vehicle depart="802.77" departLane="free" departSpeed="max" id="852" type="HV">
		<route edges="genE316 genE317"/>
	</vehicle>
	<vehicle depart="810.93" departLane="free" departSpeed="max" id="677" type="HV">
		<route edges="genE296 genE317"/>
	</vehicle>
	<vehicle depart="811.12" departLane="free" departSpeed="max" id="803" type="HV">
		<route edges="genE316 genE297"/>
	</vehicle>
	<vehicle depart="829.23" departLane="free" departSpeed="max" id="694" type="CV">
		<route edges="genE296 genE317"/>
	</vehicle>
	<vehicle depart="831.48" departLane="free" departSpeed="max" id="799" type="HV">
		<route edges="genE316 genE297"/>
	</vehicle>
	<vehicle depart="834.97" departLane="free" departSpeed="max" id="634" type="HV">
		<route edges="genE296 genE307"/>
	</vehicle>
	<vehicle depart="846.61" departLane="free" departSpeed="max" id="626" type="HV">
		<route edges="genE296 genE307"/>
	</vehicle>
	<vehicle depart="860.68" departLane="free" departSpeed="max" id="672" type="HV">
		<route edges="genE296 genE307"/>
	</vehicle>
	<vehicle depart="875.7" departLane="free" departSpeed="max" id="860" type="HV">
		<route edges="genE316 genE317"/>
	</vehicle>
	<vehicle depart="882.1" departLane="free" departSpeed="max" id="592" type="HV">
		<route edges="genE318 genE307"/>
	</vehicle>
	<vehicle depart="904.86" departLane="free" departSpeed="max" id="528" type="HV">
		<route edges="genE318 genE297"/>
	</vehicle>
	<vehicle depart="909.84" departLane="free" departSpeed="max" id="607" type="CV">
		<route edges="genE296 genE307"/>
	</vehicle>
	<vehicle depart="937.19" departLane="free" departSpeed="max" id="752" type="HV">
		<route edges="genE296 genE317"/>
	</vehicle>
	<vehicle depart="946.31" departLane="free" departSpeed="max" id="529" type="HV">
		<route edges="genE318 genE297"/>
	</vehicle>
	<vehicle depart="949.16" departLane="free" departSpeed="max" id="673" type="HV">
		<route edges="genE296 genE307"/>
	</vehicle>
	<vehicle depart="953.25" departLane="free" departSpeed="max" id="577" type="HV">
		<route edges="genE318 genE307"/>
	</vehicle>
	<vehicle depart="955.82" departLane="free" departSpeed="max" id="584" type="HV">
		<route edges="genE318 genE307"/>
	</vehicle>
	<vehicle depart="965.35" departLane="free" departSpeed="max" id="620" type="HV">
		<route edges="genE296 genE307"/>
	</vehicle>
	<vehicle depart="996.68" departLane="free" departSpeed="max" id="796" type="CV">
		<route edges="genE316 genE297"/>
	</vehicle>
	<vehicle depart="1000.32" departLane="free" departSpeed="max" id="764" type="CV">
		<route edges="genE316 genE297"/>
	</vehicle>
	<vehicle depart="1054.94" departLane="free" departSpeed="max" id="846" type="HV">
		<route edges="genE316 genE317"/>
	</vehicle>
	<vehicle depart="1069.05" departLane="free" departSpeed="max" id="735" type="HV">
		<route edges="genE296 genE317"/>
	</vehicle>
	<vehicle depart="1072.08" departLane="free" departSpeed="max" id="816" type="HV">
		<route edges="genE316 genE297"/>
	</vehicle>
	<vehicle depart="1072.28" departLane="free" departSpeed="max" id="637" type="HV">
		<route edges="genE296 genE307"/>
	</vehicle>
	<vehicle depart="1079.46" departLane="free" departSpeed="max" id="523" type="HV">
		<route edges="genE318 genE297"/>
	</vehicle>
	<vehicle depart="1081.82" departLane="free" departSpeed="max" id="691" type="HV">
		<route edges="genE296 genE317"/>
	</vehicle>
	<vehicle depart="1083.5" departLane="free" departSpeed="max" id="839" type="CV">
		<route edges="genE316 genE317"/>
	</vehicle>
	<vehicle depart="1084.42" departLane="free" departSpeed="max" id="679" type="HV">
		<route edges="genE296 genE317"/>
	</vehicle>
	<vehicle depart="1095.12" departLane="free" departSpeed="max" id="722" type="HV">
		<route edges="genE296 genE317"/>
	</vehicle>
	<vehicle depart="1121.67" departLane="free" departSpeed="max" id="520" type="HV">
		<route edges="genE318 genE297"/>
	</vehicle>
	<vehicle depart="1157.59" departLane="free" departSpeed="max" id="587" type="HV">
		<route edges="genE318 genE307"/>
	</vehicle>
	<vehicle depart="1167.49" departLane="free" departSpeed="max" id="765" type="HV">
		<route edges="genE316 genE297"/>
	</vehicle>
	<vehicle depart="1167.72" departLane="free" departSpeed="max" id="739" type="HV">
		<route edges="genE296 genE317"/>
	</vehicle>
	<vehicle depart="1170.86" departLane="free" departSpeed="max" id="653" type="CV">
		<route edges="genE296 genE307"/>
	</vehicle>
	<vehicle depart="1173.14" departLane="free" departSpeed="max" id="862" type="HV">
		<route edges="genE316 genE317"/>
	</vehicle>
	<vehicle depart="1189.83" departLane="free" departSpeed="max" id="714" type="HV">
		<route edges="genE296 genE317"/>
	</vehicle>
	<vehicle depart="1196.8" departLane="free" departSpeed="max" id="896" type="HV">
		<route edges="genE316 genE317"/>
	</vehicle>
	<vehicle depart="1203.13" departLane="free" departSpeed="max" id="674" type="HV">
		<route edges="genE296 genE307"/>
	</vehicle>
	<vehicle depart="1206.22" departLane="free" departSpeed="max" id="664" type="CV">
		<route edges="genE296 genE307"/>
	</vehicle>
	<vehicle depart="1212.76" departLane="free" departSpeed="max" id="733" type="HV">
		<route edges="genE296 genE317"/>
	</vehicle>
	<vehicle depart="1212.98" departLane="free" departSpeed="max" id="636" type="HV">
		<route edges="genE296 genE307"/>
	</vehicle>
	<vehicle depart="1216.18" departLane="free" departSpeed="max" id="826" type="HV">
		<route edges="genE316 genE297"/>
	</vehicle>
	<vehicle depart="1217.4" departLane="free" departSpeed="max" id="716" type="HV">
		<route edges="genE296 genE317"/>
	</vehicle>
	<vehicle depart="1223.75" departLane="free" departSpeed="max" id="647" type="HV">
		<route edges="genE296 genE307"/>
	</vehicle>
	<vehicle depart="1288.22" departLane="free" departSpeed="max" id="829" type="HV">
		<route edges="genE316 genE297"/>
	</vehicle>
	<vehicle depart="1294.96" departLane="free" departSpeed="max" id="743" type="CV">
		<route edges="genE296 genE317"/>
	</vehicle>
	<vehicle depart="1296.89" departLane="free" departSpeed="max" id="857" type="HV">
		<route edges="genE316 genE317"/>
	</vehicle>
	<vehicle depart="1296.91" departLane="free" departSpeed="max" id="551" type="CV">
		<route edges="genE318 genE307"/>
	</vehicle>
	<vehicle depart="1320.37" departLane="free" departSpeed="max" id="560" type="HV">
		<route edges="genE318 genE307"/>
	</vehicle>
	<vehicle depart="1329.91" departLane="free" departSpeed="max" id="745" type="CV">
		<route edges="genE296 genE317"/>
	</vehicle>
	<vehicle depart="1333.89" departLane="free" departSpeed="max" id="786" type="HV">
		<route edges="genE316 genE297"/>
	</vehicle>
	<vehicle depart="1336.16" departLane="free" departSpeed="max" id="761" type="HV">
		<route edges="genE316 genE297"/>
	</vehicle>
	<vehicle depart="1341.63" departLane="free" departSpeed="max" id="749" type="HV">
		<route edges="genE296 genE317"/>
	</vehicle>
	<vehicle depart="1344.82" departLane="free" departSpeed="max" id="798" type="HV">
		<route edges="genE316 genE297"/>
	</vehicle>
	<vehicle depart="1358.24" departLane="free" departSpeed="max" id="603" type="CV">
		<route edges="genE318 genE307"/>
	</vehicle>
	<vehicle depart="1359.15" departLane="free" departSpeed="max" id="810" type="HV">
		<route edges="genE316 genE297"/>
	</vehicle>
	<vehicle depart="1360.22" departLane="free" departSpeed="max" id="773" type="HV">
		<route edges="genE316 genE297"/>
	</vehicle>
	<vehicle depart="1364.22" departLane="free" departSpeed="max" id="787" type="HV">
		<route edges="genE316 genE297"/>
	</vehicle>
	<vehicle depart="1385.44" departLane="free" departSpeed="max" id="747" type="HV">
		<route edges="genE296 genE317"/>
	</vehicle>
	<vehicle depart="1405.44" departLane="free" departSpeed="max" id="811" type="HV">
		<route edges="genE316 genE297"/>
	</vehicle>
	<vehicle depart="1413.22" departLane="free" departSpeed="max" id="806" type="HV">
		<route edges="genE316 genE297"/>
	</vehicle>
	<vehicle depart="1416.74" departLane="free" departSpeed="max" id="596" type="HV">
		<route edges="genE318 genE307"/>
	</vehicle>
	<vehicle depart="1423.01" departLane="free" departSpeed="max" id="616" type="HV">
		<route edges="genE296 genE307"/>
	</vehicle>
	<vehicle depart="1435.33" departLane="free" departSpeed="max" id="830" type="HV">
		<route edges="genE316 genE297"/>
	</vehicle>
	<vehicle depart="1436.64" departLane="free" departSpeed="max" id="740" type="HV">
		<route edges="genE296 genE317"/>
	</vehicle>
	<vehicle depart="1436.7" departLane="free" departSpeed="max" id="729" type="CV">
		<route edges="genE296 genE317"/>
	</vehicle>
	<vehicle depart="1438.27" departLane="free" departSpeed="max" id="581" type="HV">
		<route edges="genE318 genE307"/>
	</vehicle>
	<vehicle depart="1438.77" departLane="free" departSpeed="max" id="893" type="CV">
		<route edges="genE316 genE317"/>
	</vehicle>
	<vehicle depart="1455.25" departLane="free" departSpeed="max" id="550" type="HV">
		<route edges="genE318 genE307"/>
	</vehicle>
	<vehicle depart="1477.81" departLane="free" departSpeed="max" id="850" type="HV">
		<route edges="genE316 genE317"/>
	</vehicle>
	<vehicle depart="1489.68" departLane="free" departSpeed="max" id="856" type="CV">
		<route edges="genE316 genE317"/>
	</vehicle>
	<vehicle depart="1503.46" departLane="free" departSpeed="max" id="606" type="HV">
		<route edges="genE296 genE307"/>
	</vehicle>
	<vehicle depart="1509.49" departLane="free" departSpeed="max" id="594" type="HV">
		<route edges="genE318 genE307"/>
	</vehicle>
	<vehicle depart="1521.81" departLane="free" departSpeed="max" id="785" type="HV">
		<route edges="genE316 genE297"/>
	</vehicle>
	<vehicle depart="1523.9" departLane="free" departSpeed="max" id="751" type="HV">
		<route edges="genE296 genE317"/>
	</vehicle>
	<vehicle depart="1531.08" departLane="free" departSpeed="max" id="608" type="HV">
		<route edges="genE296 genE307"/>
	</vehicle>
	<vehicle depart="1551.54" departLane="free" departSpeed="max" id="546" type="HV">
		<route edges="genE318 genE297"/>
	</vehicle>
	<vehicle depart="1554.35" departLane="free" departSpeed="max" id="877" type="HV">
		<route edges="genE316 genE317"/>
	</vehicle>
	<vehicle depart="1583.1" departLane="free" departSpeed="max" id="600" type="HV">
		<route edges="genE318 genE307"/>
	</vehicle>
	<vehicle depart="1588.81" departLane="free" departSpeed="max" id="858" type="HV">
		<route edges="genE316 genE317"/>
	</vehicle>
	<vehicle depart="1595.76" departLane="free" departSpeed="max" id="590" type="HV">
		<route edges="genE318 genE307"/>
	</vehicle>
	<vehicle depart="1596.2" departLane="free" departSpeed="max" id="727" type="HV">
		<route edges="genE296 genE317"/>
	</vehicle>
	<vehicle depart="1602.84" departLane="free" departSpeed="max" id="570" type="CV">
		<route edges="genE318 genE307"/>
	</vehicle>
	<vehicle depart="1604.23" departLane="free" departSpeed="max" id="573" type="HV">
		<route edges="genE318 genE307"/>
	</vehicle>
	<vehicle depart="1607.37" departLane="free" departSpeed="max" id="818" type="HV">
		<route edges="genE316 genE297"/>
	</vehicle>
	<vehicle depart="1630.26" departLane="free" departSpeed="max" id="684" type="HV">
		<route edges="genE296 genE317"/>
	</vehicle>
	<vehicle depart="1645.32" departLane="free" departSpeed="max" id="779" type="HV">
		<route edges="genE316 genE297"/>
	</vehicle>
	<vehicle depart="1651.11" departLane="free" departSpeed="max" id="854" type="HV">
		<route edges="genE316 genE317"/>
	</vehicle>
	<vehicle depart="1652.93" departLane="free" departSpeed="max" id="702" type="HV">
		<route edges="genE296 genE317"/>
	</vehicle>
	<vehicle depart="1672.22" departLane="free" departSpeed="max" id="807" type="CV">
		<route edges="genE316 genE297"/>
	</vehicle>
	<vehicle depart="1691.44" departLane="free" departSpeed="max" id="760" type="HV">
		<route edges="genE316 genE297"/>
	</vehicle>
	<vehicle depart="1695.71" departLane="free" departSpeed="max" id="759" type="HV">
		<route edges="genE316 genE297"/>
	</vehicle>
	<vehicle depart="1699.28" departLane="free" departSpeed="max" id="831" type="HV">
		<route edges="genE316 genE297"/>
	</vehicle>
	<vehicle depart="1708.12" departLane="free" departSpeed="max" id="812" type="HV">
		<route edges="genE316 genE297"/>
	</vehicle>
	<vehicle depart="1712.03" departLane="free" departSpeed="max" id="517" type="HV">
		<route edges="genE318 genE297"/>
	</vehicle>
	<vehicle depart="1713.28" departLane="free" departSpeed="max" id="721" type="CV">
		<route edges="genE296 genE317"/>
	</vehicle>
	<vehicle depart="1715.72" departLane="free" departSpeed="max" id="631" type="HV">
		<route edges="genE296 genE307"/>
	</vehicle>
	<vehicle depart="1716.41" departLane="free" departSpeed="max" id="834" type="CV">
		<route edges="genE316 genE297"/>
	</vehicle>
	<vehicle depart="1717.62" departLane="free" departSpeed="max" id="610" type="HV">
		<route edges="genE296 genE307"/>
	</vehicle>
	<vehicle depart="1725.86" departLane="free" departSpeed="max" id="725" type="HV">
		<route edges="genE296 genE317"/>
	</vehicle>
	<vehicle depart="1731.79" departLane="free" departSpeed="max" id="793" type="HV">
		<route edges="genE316 genE297"/>
	</vehicle>
	<vehicle depart="1733.59" departLane="free" departSpeed="max" id="535" type="HV">
		<route edges="genE318 genE297"/>
	</vehicle>
	<vehicle depart="1738.48" departLane="free" departSpeed="max" id="750" type="HV">
		<route edges="genE296 genE317"/>
	</vehicle>
	<vehicle depart="1773.92" departLane="free" departSpeed="max" id="531" type="HV">
		<route edges="genE318 genE297"/>
	</vehicle>
	<vehicle depart="1795.63" departLane="free" departSpeed="max" id="772" type="HV">
		<route edges="genE316 genE297"/>
	</vehicle>
	<vehicle depart="1799.38" departLane="free" departSpeed="max" id="719" type="HV">
		<route edges="genE296 genE317"/>
	</vehicle>
	<vehicle depart="1812.86" departLane="free" departSpeed="max" id="783" type="HV">
		<route edges="genE316 genE297"/>
	</vehicle>
	<vehicle depart="1822.22" departLane="free" departSpeed="max" id="629" type="HV">
		<route edges="genE296 genE307"/>
	</vehicle>
	<vehicle depart="1856.54" departLane="free" departSpeed="max" id="828" type="HV">
		<route edges="genE316 genE297"/>
	</vehicle>
	<vehicle depart="1870.69" departLane="free" departSpeed="max" id="533" type="HV">
		<route edges="genE318 genE297"/>
	</vehicle>
	<vehicle depart="1873.22" departLane="free" departSpeed="max" id="558" type="HV">
		<route edges="genE318 genE307"/>
	</vehicle>
	<vehicle depart="1875.22" departLane="free" departSpeed="max" id="700" type="CV">
		<route edges="genE296 genE317"/>
	</vehicle>
	<vehicle depart="1886.14" departLane="free" departSpeed="max" id="641" type="HV">
		<route edges="genE296 genE307"/>
	</vehicle>
	<vehicle depart="1891.03" departLane="free" departSpeed="max" id="682" type="HV">
		<route edges="genE296 genE317"/>
	</vehicle>
	<vehicle depart="1898.32" departLane="free" departSpeed="max" id="754" type="CV">
		<route edges="genE296 genE317"/>
	</vehicle>
	<vehicle depart="1899.07" departLane="free" departSpeed="max" id="861" type="HV">
		<route edges="genE316 genE317"/>
	</vehicle>
	<vehicle depart="1903.31" departLane="free" departSpeed="max" id="836" type="HV">
		<route edges="genE316 genE297"/>
	</vehicle>
	<vehicle depart="1910.5" departLane="free" departSpeed="max" id="681" type="HV">
		<route edges="genE296 genE317"/>
	</vehicle>
	<vehicle depart="1922.73" departLane="free" departSpeed="max" id="888" type="CV">
		<route edges="genE316 genE317"/>
	</vehicle>
	<vehicle depart="1947.37" departLane="free" departSpeed="max" id="604" type="CV">
		<route edges="genE296 genE307"/>
	</vehicle>
	<vehicle depart="1972.25" departLane="free" departSpeed="max" id="572" type="HV">
		<route edges="genE318 genE307"/>
	</vehicle>
	<vehicle depart="1983.08" departLane="free" departSpeed="max" id="537" type="HV">
		<route edges="genE318 genE297"/>
	</vehicle>
	<vehicle depart="1985.93" departLane="free" departSpeed="max" id="601" type="HV">
		<route edges="genE318 genE307"/>
	</vehicle>
	<vehicle depart="2004.99" departLane="free" departSpeed="max" id="693" type="HV">
		<route edges="genE296 genE317"/>
	</vehicle>
	<vehicle depart="2019.88" departLane="free" departSpeed="max" id="659" type="CV">
		<route edges="genE296 genE307"/>
	</vehicle>
	<vehicle depart="2032.33" departLane="free" departSpeed="max" id="797" type="HV">
		<route edges="genE316 genE297"/>
	</vehicle>
	<vehicle depart="2032.73" departLane="free" departSpeed="max" id="781" type="HV">
		<route edges="genE316 genE297"/>
	</vehicle>
	<vehicle depart="2038.72" departLane="free" departSpeed="max" id="613" type="CV">
		<route edges="genE296 genE307"/>
	</vehicle>
	<vehicle depart="2048.98" departLane="free" departSpeed="max" id="569" type="HV">
		<route edges="genE318 genE307"/>
	</vehicle>
	<vehicle depart="2072.07" departLane="free" departSpeed="max" id="825" type="CV">
		<route edges="genE316 genE297"/>
	</vehicle>
	<vehicle depart="2102.26" departLane="free" departSpeed="max" id="780" type="CV">
		<route edges="genE316 genE297"/>
	</vehicle>
	<vehicle depart="2103.89" departLane="free" departSpeed="max" id="900" type="HV">
		<route edges="genE316 genE317"/>
	</vehicle>
	<vehicle depart="2128.59" departLane="free" departSpeed="max" id="571" type="HV">
		<route edges="genE318 genE307"/>
	</vehicle>
	<vehicle depart="2133.29" departLane="free" departSpeed="max" id="730" type="HV">
		<route edges="genE296 genE317"/>
	</vehicle>
	<vehicle depart="2139.49" departLane="free" departSpeed="max" id="669" type="HV">
		<route edges="genE296 genE307"/>
	</vehicle>
	<vehicle depart="2139.72" departLane="free" departSpeed="max" id="625" type="CV">
		<route edges="genE296 genE307"/>
	</vehicle>
	<vehicle depart="2145.22" departLane="free" departSpeed="max" id="704" type="HV">
		<route edges="genE296 genE317"/>
	</vehicle>
	<vehicle depart="2146.17" departLane="free" departSpeed="max" id="689" type="CV">
		<route edges="genE296 genE317"/>
	</vehicle>
	<vehicle depart="2155.37" departLane="free" departSpeed="max" id="619" type="CV">
		<route edges="genE296 genE307"/>
	</vehicle>
	<vehicle depart="2158.27" departLane="free" departSpeed="max" id="656" type="HV">
		<route edges="genE296 genE307"/>
	</vehicle>
	<vehicle depart="2172.58" departLane="free" departSpeed="max" id="882" type="HV">
		<route edges="genE316 genE317"/>
	</vehicle>
	<vehicle depart="2187.55" departLane="free" departSpeed="max" id="609" type="CV">
		<route edges="genE296 genE307"/>
	</vehicle>
	<vehicle depart="2194.08" departLane="free" departSpeed="max" id="618" type="HV">
		<route edges="genE296 genE307"/>
	</vehicle>
	<vehicle depart="2195.87" departLane="free" departSpeed="max" id="805" type="HV">
		<route edges="genE316 genE297"/>
	</vehicle>
	<vehicle depart="2199.12" departLane="free" departSpeed="max" id="889" type="HV">
		<route edges="genE316 genE317"/>
	</vehicle>