<?xml version="1.0" ?>
<routes>
	<vType accel="0.8" decel="4.5" id="CV" length="5" maxSpeed="45" sigma="0.5"/>
	<vType accel="0.8" decel="4.5" id="HV" length="5" maxSpeed="40" sigma="0.5"/>
	<vehicle depart="1.27" departLane="free" departSpeed="max" id="7408" type="HV">
		<route edges="genE296 genE317"/>
	</vehicle>
	<vehicle depart="3.42" departLane="free" departSpeed="max" id="7778" type="HV">
		<route edges="genE316 genE297"/>
	</vehicle>
	<vehicle depart="5.67" departLane="free" departSpeed="max" id="7409" type="HV">
		<route edges="genE296 genE317"/>
	</vehicle>
	<vehicle depart="6.33" departLane="free" departSpeed="max" id="6962" type="HV">
		<route edges="genE318 genE307"/>
	</vehicle>
	<vehicle depart="9.39" departLane="free" departSpeed="max" id="7069" type="HV">
		<route edges="genE318 genE307"/>
	</vehicle>
	<vehicle depart="15.55" departLane="free" departSpeed="max" id="6889" type="HV">
		<route edges="genE318 genE297"/>
	</vehicle>
	<vehicle depart="21.49" departLane="free" departSpeed="max" id="7936" type="HV">
		<route edges="genE316 genE317"/>
	</vehicle>
	<vehicle depart="22.68" departLane="free" departSpeed="max" id="8026" type="HV">
		<route edges="genE316 genE317"/>
	</vehicle>
	<vehicle depart="24.09" departLane="free" departSpeed="max" id="6874" type="HV">
		<route edges="genE318 genE297"/>
	</vehicle>
	<vehicle depart="28.74" departLane="free" departSpeed="max" id="7031" type="HV">
		<route edges="genE318 genE307"/>
	</vehicle>
	<vehicle depart="29.51" departLane="free" departSpeed="max" id="7191" type="HV">
		<route edges="genE296 genE307"/>
	</vehicle>
	<vehicle depart="34.38" departLane="free" departSpeed="max" id="7184" type="HV">
		<route edges="genE296 genE307"/>
	</vehicle>
	<vehicle depart="37.47" departLane="free" departSpeed="max" id="7865" type="CV">
		<route edges="genE316 genE297"/>
	</vehicle>
	<vehicle depart="38.43" departLane="free" departSpeed="max" id="7261" type="CV">
		<route edges="genE296 genE307"/>
	</vehicle>
	<vehicle depart="43.53" departLane="free" departSpeed="max" id="7974" type="CV">
		<route edges="genE316 genE317"/>
	</vehicle>
	<vehicle depart="48.92" departLane="free" departSpeed="max" id="7708" type="CV">
		<route edges="genE316 genE297"/>
	</vehicle>
	<vehicle depart="57.81" departLane="free" departSpeed="max" id="6895" type="HV">
		<route edges="genE318 genE297"/>
	</vehicle>
	<vehicle depart="58.17" departLane="free" departSpeed="max" id="7525" type="CV">
		<route edges="genE296 genE317"/>
	</vehicle>
	<vehicle depart="63.61" departLane="free" departSpeed="max" id="7065" type="HV">
		<route edges="genE318 genE307"/>
	</vehicle>
	<vehicle depart="65.19" departLane="free" departSpeed="max" id="7634" type="HV">
		<route edges="genE296 genE317"/>
	</vehicle>
	<vehicle depart="71.48" departLane="free" departSpeed="max" id="7387" type="CV">
		<route edges="genE296 genE317"/>
	</vehicle>
	<vehicle depart="73.19" departLane="free" departSpeed="max" id="7934" type="HV">
		<route edges="genE316 genE317"/>
	</vehicle>
	<vehicle depart="73.65" departLane="free" departSpeed="max" id="7863" type="HV">
		<route edges="genE316 genE297"/>
	</vehicle>
	<vehicle depart="76.07" departLane="free" departSpeed="max" id="7372" type="HV">
		<route edges="genE296 genE307"/>
	</vehicle>
	<vehicle depart="85.05" departLane="free" departSpeed="max" id="6998" type="HV">
		<route edges="genE318 genE307"/>
	</vehicle>
	<vehicle depart="87.42" departLane="free" departSpeed="max" id="7951" type="HV">
		<route edges="genE316 genE317"/>
	</vehicle>
	<vehicle depart="89.67" departLane="free" departSpeed="max" id="6911" type="CV">
		<route edges="genE318 genE297"/>
	</vehicle>
	<vehicle depart="105.65" departLane="free" departSpeed="max" id="7569" type="HV">
		<route edges="genE296 genE317"/>
	</vehicle>
	<vehicle depart="110.56" departLane="free" departSpeed="max" id="7395" type="HV">
		<route edges="genE296 genE317"/>
	</vehicle>
	<vehicle depart="111.74" departLane="free" departSpeed="max" id="7366" type="HV">
		<route edges="genE296 genE307"/>
	</vehicle>
	<vehicle depart="112.83" departLane="free" departSpeed="max" id="7690" type="HV">
		<route edges="genE316 genE297"/>
	</vehicle>
	<vehicle depart="115.62" departLane="free" departSpeed="max" id="7786" type="HV">
		<route edges="genE316 genE297"/>
	</vehicle>
	<vehicle depart="120.35" departLane="free" departSpeed="max" id="6910" type="HV">
		<route edges="genE318 genE297"/>
	</vehicle>
	<vehicle depart="124.14" departLane="free" departSpeed="max" id="7035" type="HV">
		<route edges="genE318 genE307"/>
	</vehicle>
	<vehicle depart="127.05" departLane="free" departSpeed="max" id="7032" type="HV">
		<route edges="genE318 genE307"/>
	</vehicle>
	<vehicle depart="130.09" departLane="free" departSpeed="max" id="7585" type="HV">
		<route edges="genE296 genE317"/>
	</vehicle>
	<vehicle depart="131.52" departLane="free" departSpeed="max" id="7046" type="HV">
		<route edges="genE318 genE307"/>
	</vehicle>
	<vehicle depart="134.87" departLane="free" departSpeed="max" id="7397" type="HV">
		<route edges="genE296 genE317"/>
	</vehicle>
	<vehicle depart="135.77" departLane="free" departSpeed="max" id="7896" type="CV">
		<route edges="genE316 genE297"/>
	</vehicle>
	<vehicle depart="136.73" departLane="free" departSpeed="max" id="7985" type="HV">
		<route edges="genE316 genE317"/>
	</vehicle>
	<vehicle depart="141.22" departLane="free" departSpeed="max" id="8096" type="CV">
		<route edges="genE316 genE317"/>
	</vehicle>
	<vehicle depart="146.51" departLane="free" departSpeed="max" id="6883" type="HV">
		<route edges="genE318 genE297"/>
	</vehicle>
	<vehicle depart="146.68" departLane="free" departSpeed="max" id="7739" type="HV">
		<route edges="genE316 genE297"/>
	</vehicle>
	<vehicle depart="151.05" departLane="free" departSpeed="max" id="8105" type="HV">
		<route edges="genE316 genE317"/>
	</vehicle>
	<vehicle depart="152.86" departLane="free" departSpeed="max" id="7703" type="CV">
		<route edges="genE316 genE297"/>
	</vehicle>
	<vehicle depart="153.15" departLane="free" departSpeed="max" id="7797" type="HV">
		<route edges="genE316 genE297"/>
	</vehicle>
	<vehicle depart="156.54" departLane="free" departSpeed="max" id="6900" type="HV">
		<route edges="genE318 genE297"/>
	</vehicle>
	<vehicle depart="157.22" departLane="free" departSpeed="max" id="7692" type="HV">
		<route edges="genE316 genE297"/>
	</vehicle>
	<vehicle depart="169.44" departLane="free" departSpeed="max" id="7246" type="HV">
		<route edges="genE296 genE307"/>
	</vehicle>
	<vehicle depart="170.08" departLane="free" departSpeed="max" id="7583" type="HV">
		<route edges="genE296 genE317"/>
	</vehicle>
	<vehicle depart="179.15" departLane="free" departSpeed="max" id="7748" type="HV">
		<route edges="genE316 genE297"/>
	</vehicle>
	<vehicle depart="179.32" departLane="free" departSpeed="max" id="7918" type="HV">
		<route edges="genE316 genE317"/>
	</vehicle>
	<vehicle depart="180.06" departLane="free" departSpeed="max" id="7836" type="HV">
		<route edges="genE316 genE297"/>
	</vehicle>
	<vehicle depart="181.28" departLane="free" departSpeed="max" id="7382" type="HV">
		<route edges="genE296 genE317"/>
	</vehicle>
	<vehicle depart="183.19" departLane="free" departSpeed="max" id="7173" type="CV">
		<route edges="genE296 genE307"/>
	</vehicle>
	<vehicle depart="183.24" departLane="free" departSpeed="max" id="7289" type="HV">
		<route edges="genE296 genE307"/>
	</vehicle>
	<vehicle depart="184.32" departLane="free" departSpeed="max" id="7012" type="HV">
		<route edges="genE318 genE307"/>
	</vehicle>
	<vehicle depart="185.81" departLane="free" departSpeed="max" id="6965" type="CV">
		<route edges="genE318 genE307"/>
	</vehicle>
	<vehicle depart="187.96" departLane="free" departSpeed="max" id="7839" type="HV">
		<route edges="genE316 genE297"/>
	</vehicle>
	<vehicle depart="189.05" departLane="free" departSpeed="max" id="7421" type="HV">
		<route edges="genE296 genE317"/>
	</vehicle>
	<vehicle depart="192.45" departLane="free" departSpeed="max" id="6859" type="HV">
		<route edges="genE318 genE297"/>
	</vehicle>
	<vehicle depart="200.41" departLane="free" departSpeed="max" id="7829" type="HV">
		<route edges="genE316 genE297"/>
	</vehicle>
	<vehicle depart="206.5" departLane="free" departSpeed="max" id="7117" type="HV">
		<route edges="genE318 genE307"/>
	</vehicle>
	<vehicle depart="207.5" departLane="free" departSpeed="max" id="6950" type="HV">
		<route edges="genE318 genE307"/>
	</vehicle>
	<vehicle depart="208.33" departLane="free" departSpeed="max" id="8104" type="HV">
		<route edges="genE316 genE317"/>
	</vehicle>
	<vehicle depart="208.66" departLane="free" departSpeed="max" id="7215" type="HV">
		<route edges="genE296 genE307"/>
	</vehicle>
	<vehicle depart="211.3" departLane="free" departSpeed="max" id="8111" type="CV">
		<route edges="genE316 genE317"/>
	</vehicle>
	<vehicle depart="214.33" departLane="free" departSpeed="max" id="7820" type="HV">
		<route edges="genE316 genE297"/>
	</vehicle>
	<vehicle depart="214.38" departLane="free" departSpeed="max" id="6934" type="HV">
		<route edges="genE318 genE297"/>
	</vehicle>
	<vehicle depart="215.11" departLane="free" departSpeed="max" id="7635" type="HV">
		<route edges="genE296 genE317"/>
	</vehicle>
	<vehicle depart="217.24" departLane="free" departSpeed="max" id="7140" type="HV">
		<route edges="genE296 genE307"/>
	</vehicle>
	<vehicle depart="219.68" departLane="free" departSpeed="max" id="7571" type="CV">
		<route edges="genE296 genE317"/>
	</vehicle>
	<vehicle depart="223.28" departLane="free" departSpeed="max" id="7881" type="CV">
		<route edges="genE316 genE297"/>
	</vehicle>
	<vehicle depart="227.58" departLane="free" departSpeed="max" id="7927" type="HV">
		<route edges="genE316 genE317"/>
	</vehicle>
	<vehicle depart="228.34" departLane="free" departSpeed="max" id="7670" type="HV">
		<route edges="genE316 genE297"/>
	</vehicle>
	<vehicle depart="229.2" departLane="free" departSpeed="max" id="6959" type="HV">
		<route edges="genE318 genE307"/>
	</vehicle>
	<vehicle depart="230.81" departLane="free" departSpeed="max" id="8021" type="HV">
		<route edges="genE316 genE317"/>
	</vehicle>
	<vehicle depart="234.05" departLane="free" departSpeed="max" id="7214" type="HV">
		<route edges="genE296 genE307"/>
	</vehicle>
	<vehicle depart="234.76" departLane="free" departSpeed="max" id="7369" type="HV">
		<route edges="genE296 genE307"/>
	</vehicle>
	<vehicle depart="235.08" departLane="free" departSpeed="max" id="8108" type="HV">
		<route edges="genE316 genE317"/>
	</vehicle>
	<vehicle depart="236.88" departLane="free" departSpeed="max" id="7057" type="HV">
		<route edges="genE318 genE307"/>
	</vehicle>
	<vehicle depart="237.2" departLane="free" departSpeed="max" id="7259" type="HV">
		<route edges="genE296 genE307"/>
	</vehicle>
	<vehicle depart="237.95" departLane="free" departSpeed="max" id="7980" type="HV">
		<route edges="genE316 genE317"/>
	</vehicle>
	<vehicle depart="238.89" departLane="free" departSpeed="max" id="7668" type="CV">
		<route edges="genE316 genE297"/>
	</vehicle>
	<vehicle depart="239.79" departLane="free" departSpeed="max" id="7570" type="HV">
		<route edges="genE296 genE317"/>
	</vehicle>
	<vehicle depart="242.11" departLane="free" departSpeed="max" id="7987" type="HV">
		<route edges="genE316 genE317"/>
	</vehicle>
	<vehicle depart="242.27" departLane="free" departSpeed="max" id="7638" type="HV">
		<route edges="genE296 genE317"/>
	</vehicle>
	<vehicle depart="246.94" departLane="free" departSpeed="max" id="7015" type="CV">
		<route edges="genE318 genE307"/>
	</vehicle>
	<vehicle depart="249.11" departLane="free" departSpeed="max" id="7697" type="HV">
		<route edges="genE316 genE297"/>
	</vehicle>
	<vehicle depart="251.09" departLane="free" departSpeed="max" id="7340" type="CV">
		<route edges="genE296 genE307"/>
	</vehicle>
	<vehicle depart="253.35" departLane="free" departSpeed="max" id="7004" type="CV">
		<route edges="genE318 genE307"/>
	</vehicle>
	<vehicle depart="254.52" departLane="free" departSpeed="max" id="7097" type="CV">
		<route edges="genE318 genE307"/>
	</vehicle>
	<vehicle depart="259.63" departLane="free" departSpeed="max" id="7232" type="CV">
		<route edges="genE296 genE307"/>
	</vehicle>
	<vehicle depart="260.98" departLane="free" departSpeed="max" id="7304" type="HV">
		<route edges="genE296 genE307"/>
	</vehicle>
	<vehicle depart="264.37" departLane="free" departSpeed="max" id="7766" type="CV">
		<route edges="genE316 genE297"/>
	</vehicle>
	<vehicle depart="264.66" departLane="free" departSpeed="max" id="7133" type="HV">
		<route edges="genE318 genE307"/>
	</vehicle>
	<vehicle depart="265.42" departLane="free" departSpeed="max" id="7884" type="HV">
		<route edges="genE316 genE297"/>
	</vehicle>
	<vehicle depart="265.98" departLane="free" departSpeed="max" id="7346" type="HV">
		<route edges="genE296 genE307"/>
	</vehicle>
	<vehicle depart="270.39" departLane="free" departSpeed="max" id="6987" type="HV">
		<route edges="genE318 genE307"/>
	</vehicle>
	<vehicle depart="272.64" departLane="free" departSpeed="max" id="7837" type="HV">
		<route edges="genE316 genE297"/>
	</vehicle>
	<vehicle depart="276.81" departLane="free" departSpeed="max" id="8116" type="CV">
		<route edges="genE316 genE317"/>
	</vehicle>
	<vehicle depart="277.66" departLane="free" departSpeed="max" id="8009" type="HV">
		<route edges="genE316 genE317"/>
	</vehicle>
	<vehicle depart="283.97" departLane="free" departSpeed="max" id="8016" type="HV">
		<route edges="genE316 genE317"/>
	</vehicle>
	<vehicle depart="284.8" departLane="free" departSpeed="max" id="7344" type="HV">
		<route edges="genE296 genE307"/>
	</vehicle>
	<vehicle depart="287.32" departLane="free" departSpeed="max" id="7108" type="CV">
		<route edges="genE318 genE307"/>
	</vehicle>
	<vehicle depart="294.35" departLane="free" departSpeed="max" id="6914" type="HV">
		<route edges="genE318 genE297"/>
	</vehicle>
	<vehicle depart="297.86" departLane="free" departSpeed="max" id="7858" type="HV">
		<route edges="genE316 genE297"/>
	</vehicle>
	<vehicle depart="298.97" departLane="free" departSpeed="max" id="8069" type="HV">
		<route edges="genE316 genE317"/>
	</vehicle>
	<vehicle depart="302.78" departLane="free" departSpeed="max" id="7719" type="HV">
		<route edges="genE316 genE297"/>
	</vehicle>
	<vehicle depart="305.45" departLane="free" departSpeed="max" id="7162" type="HV">
		<route edges="genE296 genE307"/>
	</vehicle>
	<vehicle depart="306.2" departLane="free" departSpeed="max" id="7419" type="HV">
		<route edges="genE296 genE317"/>
	</vehicle>
	<vehicle depart="317.62" departLane="free" departSpeed="max" id="7923" type="HV">
		<route edges="genE316 genE317"/>
	</vehicle>
	<vehicle depart="317.65" departLane="free" departSpeed="max" id="7042" type="HV">
		<route edges="genE318 genE307"/>
	</vehicle>
	<vehicle depart="320.92" departLane="free" departSpeed="max" id="7886" type="HV">
		<route edges="genE316 genE297"/>
	</vehicle>
	<vehicle depart="324.09" departLane="free" departSpeed="max" id="7663" type="HV">
		<route edges="genE316 genE297"/>
	</vehicle>
	<vehicle depart="329.14" departLane="free" departSpeed="max" id="7520" type="HV">
		<route edges="genE296 genE317"/>
	</vehicle>
	<vehicle depart="329.67" departLane="free" departSpeed="max" id="7518" type="HV">
		<route edges="genE296 genE317"/>
	</vehicle>
	<vehicle depart="329.95" departLane="free" departSpeed="max" id="7704" type="HV">
		<route edges="genE316 genE297"/>
	</vehicle>
	<vehicle depart="330.01" departLane="free" departSpeed="max" id="7183" type="HV">
		<route edges="genE296 genE307"/>
	</vehicle>
	<vehicle depart="333.16" departLane="free" departSpeed="max" id="7505" type="HV">
		<route edges="genE296 genE317"/>
	</vehicle>
	<vehicle depart="333.88" departLane="free" departSpeed="max" id="7182" type="HV">
		<route edges="genE296 genE307"/>
	</vehicle>
	<vehicle depart="334.22" departLane="free" departSpeed="max" id="6882" type="CV">
		<route edges="genE318 genE297"/>
	</vehicle>
	<vehicle depart="345.29" departLane="free" departSpeed="max" id="7551" type="HV">
		<route edges="genE296 genE317"/>
	</vehicle>
	<vehicle depart="345.53" departLane="free" departSpeed="max" id="7855" type="HV">
		<route edges="genE316 genE297"/>
	</vehicle>
	<vehicle depart="346.76" departLane="free" departSpeed="max" id="7544" type="HV">
		<route edges="genE296 genE317"/>
	</vehicle>
	<vehicle depart="349.85" departLane="free" departSpeed="max" id="6975" type="CV">
		<route edges="genE318 genE307"/>
	</vehicle>
	<vehicle depart="351.93" departLane="free" departSpeed="max" id="6979" type="HV">
		<route edges="genE318 genE307"/>
	</vehicle>
	<vehicle depart="352.68" departLane="free" departSpeed="max" id="7917" type="HV">
		<route edges="genE316 genE317"/>
	</vehicle>
	<vehicle depart="356.6" departLane="free" departSpeed="max" id="7711" type="HV">
		<route edges="genE316 genE297"/>
	</vehicle>
	<vehicle depart="356.81" departLane="free" departSpeed="max" id="7652" type="CV">
		<route edges="genE316 genE297"/>
	</vehicle>
	<vehicle depart="356.85" departLane="free" departSpeed="max" id="7067" type="HV">
		<route edges="genE318 genE307"/>
	</vehicle>
	<vehicle depart="359.61" departLane="free" departSpeed="max" id="6944" type="CV">
		<route edges="genE318 genE297"/>
	</vehicle>
	<vehicle depart="364.62" departLane="free" departSpeed="max" id="7592" type="HV">
		<route edges="genE296 genE317"/>
	</vehicle>
	<vehicle depart="365.68" departLane="free" departSpeed="max" id="8102" type="CV">
		<route edges="genE316 genE317"/>
	</vehicle>
	<vehicle depart="370.13" departLane="free" departSpeed="max" id="6844" type="HV">
		<route edges="genE318 genE297"/>
	</vehicle>
	<vehicle depart="372.09" departLane="free" departSpeed="max" id="8029" type="HV">
		<route edges="genE316 genE317"/>
	</vehicle>
	<vehicle depart="372.21" departLane="free" departSpeed="max" id="7772" type="HV">
		<route edges="genE316 genE297"/>
	</vehicle>
	<vehicle depart="376.18" departLane="free" departSpeed="max" id="8037" type="HV">
		<route edges="genE316 genE317"/>
	</vehicle>
	<vehicle depart="377.15" departLane="free" departSpeed="max" id="7740" type="HV">
		<route edges="genE316 genE297"/>
	</vehicle>
	<vehicle depart="383.04" departLane="free" departSpeed="max" id="7737" type="HV">
		<route edges="genE316 genE297"/>
	</vehicle>
	<vehicle depart="387.49" departLane="free" departSpeed="max" id="8019" type="HV">
		<route edges="genE316 genE317"/>
	</vehicle>
	<vehicle depart="391.14" departLane="free" departSpeed="max" id="7063" type="CV">
		<route edges="genE318 genE307"/>
	</vehicle>
	<vehicle depart="392.58" departLane="free" departSpeed="max" id="7269" type="CV">
		<route edges="genE296 genE307"/>
	</vehicle>
	<vehicle depart="399.07" departLane="free" departSpeed="max" id="7407" type="CV">
		<route edges="genE296 genE317"/>
	</vehicle>
	<vehicle depart="399.73" departLane="free" departSpeed="max" id="7555" type="HV">
		<route edges="genE296 genE317"/>
	</vehicle>
	<vehicle depart="400.26" departLane="free" departSpeed="max" id="7817" type="HV">
		<route edges="genE316 genE297"/>
	</vehicle>
	<vehicle depart="401.64" departLane="free" departSpeed="max" id="7526" type="HV">
		<route edges="genE296 genE317"/>
	</vehicle>
	<vehicle depart="407.39" departLane="free" departSpeed="max" id="7548" type="HV">
		<route edges="genE296 genE317"/>
	</vehicle>
	<vehicle depart="408.78" departLane="free" departSpeed="max" id="7074" type="HV">
		<route edges="genE318 genE307"/>
	</vehicle>
	<vehicle depart="413.88" departLane="free" departSpeed="max" id="7096" type="HV">
		<route edges="genE318 genE307"/>
	</vehicle>
	<vehicle depart="418.1" departLane="free" departSpeed="max" id="7485" type="HV">
		<route edges="genE296 genE317"/>
	</vehicle>
	<vehicle depart="418.62" departLane="free" departSpeed="max" id="7248" type="HV">
		<route edges="genE296 genE307"/>
	</vehicle>
	<vehicle depart="418.91" departLane="free" departSpeed="max" id="7914" type="HV">
		<route edges="genE316 genE297"/>
	</vehicle>
	<vehicle depart="423.02" departLane="free" departSpeed="max" id="7554" type="HV">
		<route edges="genE296 genE317"/>
	</vehicle>
	<vehicle depart="423.49" departLane="free" departSpeed="max" id="7078" type="HV">
		<route edges="genE318 genE307"/>
	</vehicle>
	<vehicle depart="423.6" departLane="free" departSpeed="max" id="8014" type="HV">
		<route edges="genE316 genE317"/>
	</vehicle>
	<vehicle depart="425.75" departLane="free" departSpeed="max" id="7707" type="HV">
		<route edges="genE316 genE297"/>
	</vehicle>
	<vehicle depart="427.44" departLane="free" departSpeed="max" id="8115" type="HV">
		<route edges="genE316 genE317"/>
	</vehicle>
	<vehicle depart="429.12" departLane="free" departSpeed="max" id="7864" type="HV">
		<route edges="genE316 genE297"/>
	</vehicle>
	<vehicle depart="429.64" departLane="free" departSpeed="max" id="7872" type="HV">
		<route edges="genE316 genE297"/>
	</vehicle>
	<vehicle depart="430.12" departLane="free" departSpeed="max" id="7527" type="HV">
		<route edges="genE296 genE317"/>
	</vehicle>
	<vehicle depart="430.29" departLane="free" departSpeed="max" id="7604" type="HV">
		<route edges="genE296 genE317"/>
	</vehicle>
	<vehicle depart="431.27" departLane="free" departSpeed="max" id="7626" type="HV">
		<route edges="genE296 genE317"/>
	</vehicle>
	<vehicle depart="431.67" departLane="free" departSpeed="max" id="7083" type="CV">
		<route edges="genE318 genE307"/>
	</vehicle>
	<vehicle depart="441.01" departLane="free" departSpeed="max" id="6949" type="CV">
		<route edges="genE318 genE307"/>
	</vehicle>
	<vehicle depart="441.8" departLane="free" departSpeed="max" id="7361" type="HV">
		<route edges="genE296 genE307"/>
	</vehicle>
	<vehicle depart="443.89" departLane="free" departSpeed="max" id="7682" type="CV">
		<route edges="genE316 genE297"/>
	</vehicle>
	<vehicle depart="444.22" departLane="free" departSpeed="max" id="6936" type="CV">
		<route edges="genE318 genE297"/>
	</vehicle>
	<vehicle depart="445.67" departLane="free" departSpeed="max" id="7213" type="HV">
		<route edges="genE296 genE307"/>
	</vehicle>
	<vehicle depart="450.38" departLane="free" departSpeed="max" id="7905" type="HV">
		<route edges="genE316 genE297"/>
	</vehicle>
	<vehicle depart="454.18" departLane="free" departSpeed="max" id="7481" type="CV">
		<route edges="genE296 genE317"/>
	</vehicle>
	<vehicle depart="455.37" departLane="free" departSpeed="max" id="7163" type="HV">
		<route edges="genE296 genE307"/>
	</vehicle>
	<vehicle depart="456.39" departLane="free" departSpeed="max" id="7300" type="HV">
		<route edges="genE296 genE307"/>
	</vehicle>
	<vehicle depart="457.17" departLane="free" departSpeed="max" id="6850" type="CV">
		<route edges="genE318 genE297"/>
	</vehicle>
	<vehicle depart="460.22" departLane="free" departSpeed="max" id="8080" type="HV">
		<route edges="genE316 genE317"/>
	</vehicle>
	<vehicle depart="461.03" departLane="free" departSpeed="max" id="7345" type="HV">
		<route edges="genE296 genE307"/>
	</vehicle>
	<vehicle depart="462.03" departLane="free" departSpeed="max" id="7620" type="HV">
		<route edges="genE296 genE317"/>
	</vehicle>
	<vehicle depart="466.52" departLane="free" departSpeed="max" id="7059" type="HV">
		<route edges="genE318 genE307"/>
	</vehicle>
	<vehicle depart="472.31" departLane="free" departSpeed="max" id="7689" type="CV">
		<route edges="genE316 genE297"/>
	</vehicle>
	<vehicle depart="473.88" departLane="free" departSpeed="max" id="7775" type="HV">
		<route edges="genE316 genE297"/>
	</vehicle>
	<vehicle depart="476.61" departLane="free" departSpeed="max" id="7823" type="HV">
		<route edges="genE316 genE297"/>
	</vehicle>
	<vehicle depart="479.55" departLane="free" departSpeed="max" id="7507" type="HV">
		<route edges="genE296 genE317"/>
	</vehicle>
	<vehicle depart="479.62" departLane="free" departSpeed="max" id="7435" type="HV">
		<route edges="genE296 genE317"/>
	</vehicle>
	<vehicle depart="484.93" departLane="free" departSpeed="max" id="6885" type="HV">
		<route edges="genE318 genE297"/>
	</vehicle>
	<vehicle depart="485.44" departLane="free" departSpeed="max" id="8077" type="HV">
		<route edges="genE316 genE317"/>
	</vehicle>
	<vehicle depart="488.17" departLane="free" departSpeed="max" id="7211" type="HV">
		<route edges="genE296 genE307"/>
	</vehicle>
	<vehicle depart="492.69" departLane="free" departSpeed="max" id="7922" type="CV">
		<route edges="genE316 genE317"/>
	</vehicle>
	<vehicle depart="493.15" departLane="free" departSpeed="max" id="7873" type="CV">
		<route edges="genE316 genE297"/>
	</vehicle>
	<vehicle depart="494.11" departLane="free" departSpeed="max" id="8012" type="CV">
		<route edges="genE316 genE317"/>
	</vehicle>
	<vehicle depart="495.77" departLane="free" departSpeed="max" id="7287" type="CV">
		<route edges="genE296 genE307"/>
	</vehicle>
	<vehicle depart="499.69" departLane="free" departSpeed="max" id="7237" type="HV">
		<route edges="genE296 genE307"/>
	</vehicle>
	<vehicle depart="499.82" departLane="free" departSpeed="max" id="7333" type="HV">
		<route edges="genE296 genE307"/>
	</vehicle>
	<vehicle depart="503.98" departLane="free" departSpeed="max" id="7685" type="HV">
		<route edges="genE316 genE297"/>
	</vehicle>
	<vehicle depart="506.72" departLane="free" departSpeed="max" id="7255" type="HV">
		<route edges="genE296 genE307"/>
	</vehicle>
	<vehicle depart="508.1" departLane="free" departSpeed="max" id="7364" type="HV">
		<route edges="genE296 genE307"/>
	</vehicle>
	<vehicle depart="510.14" departLane="free" departSpeed="max" id="7611" type="HV">
		<route edges="genE296 genE317"/>
	</vehicle>
	<vehicle depart="517.32" departLane="free" departSpeed="max" id="7210" type="HV">
		<route edges="genE296 genE307"/>
	</vehicle>
	<vehicle depart="519.56" departLane="free" departSpeed="max" id="8081" type="HV">
		<route edges="genE316 genE317"/>
	</vehicle>
	<vehicle depart="521.11" departLane="free" departSpeed="max" id="7824" type="CV">
		<route edges="genE316 genE297"/>
	</vehicle>
	<vehicle depart="521.96" departLane="free" departSpeed="max" id="6887" type="HV">
		<route edges="genE318 genE297"/>
	</vehicle>
	<vehicle depart="522.61" departLane="free" departSpeed="max" id="7814" type="HV">
		<route edges="genE316 genE297"/>
	</vehicle>
	<vehicle depart="524.89" departLane="free" departSpeed="max" id="6870" type="HV">
		<route edges="genE318 genE297"/>
	</vehicle>
	<vehicle depart="525.55" departLane="free" departSpeed="max" id="7230" type="HV">
		<route edges="genE296 genE307"/>
	</vehicle>
	<vehicle depart="528.51" departLane="free" departSpeed="max" id="7998" type="HV">
		<route edges="genE316 genE317"/>
	</vehicle>
	<vehicle depart="528.97" departLane="free" departSpeed="max" id="7495" type="HV">
		<route edges="genE296 genE317"/>
	</vehicle>
	<vehicle depart="530.65" departLane="free" departSpeed="max" id="7403" type="HV">
		<route edges="genE296 genE317"/>
	</vehicle>
	<vehicle depart="530.99" departLane="free" departSpeed="max" id="7288" type="HV">
		<route edges="genE296 genE307"/>
	</vehicle>
	<vehicle depart="531.59" departLane="free" departSpeed="max" id="8071" type="CV">
		<route edges="genE316 genE317"/>
	</vehicle>
	<vehicle depart="532.93" departLane="free" departSpeed="max" id="7180" type="CV">
		<route edges="genE296 genE307"/>
	</vehicle>
	<vehicle depart="534.18" departLane="free" departSpeed="max" id="7303" type="CV">
		<route edges="genE296 genE307"/>
	</vehicle>
	<vehicle depart="534.55" departLane="free" departSpeed="max" id="7960" type="HV">
		<route edges="genE316 genE317"/>
	</vehicle>
	<vehicle depart="536.44" departLane="free" departSpeed="max" id="6846" type="HV">
		<route edges="genE318 genE297"/>
	</vehicle>
	<vehicle depart="542.61" departLane="free" departSpeed="max" id="7715" type="HV">
		<route edges="genE316 genE297"/>
	</vehicle>
	<vehicle depart="543.59" departLane="free" departSpeed="max" id="7367" type="HV">
		<route edges="genE296 genE307"/>
	</vehicle>
	<vehicle depart="544.48" departLane="free" departSpeed="max" id="7919" type="HV">
		<route edges="genE316 genE317"/>
	</vehicle>
	<vehicle depart="546.97" departLane="free" departSpeed="max" id="8022" type="HV">
		<route edges="genE316 genE317"/>
	</vehicle>
	<vehicle depart="547.69" departLane="free" departSpeed="max" id="7052" type="HV">
		<route edges="genE318 genE307"/>
	</vehicle>
	<vehicle depart="551.23" departLane="free" departSpeed="max" id="7568" type="HV">
		<route edges="genE296 genE317"/>
	</vehicle>
	<vehicle depart="555.37" departLane="free" departSpeed="max" id="7939" type="CV">
		<route edges="genE316 genE317"/>
	</vehicle>
	<vehicle depart="556.89" departLane="free" departSpeed="max" id="7648" type="HV">
		<route edges="genE316 genE297"/>
	</vehicle>
	<vehicle depart="556.98" departLane="free" departSpeed="max" id="7373" type="HV">
		<route edges="genE296 genE307"/>
	</vehicle>
	<vehicle depart="562.51" departLane="free" departSpeed="max" id="7590" type="HV">
		<route edges="genE296 genE317"/>
	</vehicle>
	<vehicle depart="565.97" departLane="free" departSpeed="max" id="7440" type="HV">
		<route edges="genE296 genE317"/>
	</vehicle>
	<vehicle depart="566.26" departLane="free" departSpeed="max" id="7181" type="CV">
		<route edges="genE296 genE307"/>
	</vehicle>
	<vehicle depart="574.15" departLane="free" departSpeed="max" id="6899" type="HV">
		<route edges="genE318 genE297"/>
	</vehicle>
	<vehicle depart="575.96" departLane="free" departSpeed="max" id="8049" type="HV">
		<route edges="genE316 genE317"/>
	</vehicle>
	<vehicle depart="579.67" departLane="free" departSpeed="max" id="7460" type="HV">
		<route edges="genE296 genE317"/>
	</vehicle>
	<vehicle depart="580.01" departLane="free" departSpeed="max" id="7605" type="HV">
		<route edges="genE296 genE317"/>
	</vehicle>
	<vehicle depart="582.54" departLane="free" departSpeed="max" id="7933" type="HV">
		<route edges="genE316 genE317"/>
	</vehicle>
	<vehicle depart="583.47" departLane="free" departSpeed="max" id="8018" type="CV">