<?xml version="1.0" ?>
<routes>
	<vType accel="0.8" decel="4.5" id="CV" length="5" maxSpeed="45" sigma="0.5"/>
	<vType accel="0.8" decel="4.5" id="HV" length="5" maxSpeed="40" sigma="0.5"/>
	<vehicle depart="1.88" departLane="free" departSpeed="max" id="3182" type="HV">
		<route edges="genE296 genE317"/>
	</vehicle>
	<vehicle depart="4.33" departLane="free" departSpeed="max" id="3017" type="HV">
		<route edges="genE296 genE317"/>
	</vehicle>
	<vehicle depart="7.36" departLane="free" departSpeed="max" id="3053" type="CV">
		<route edges="genE296 genE317"/>
	</vehicle>
	<vehicle depart="11.0" departLane="free" departSpeed="max" id="3009" type="HV">
		<route edges="genE296 genE317"/>
	</vehicle>
	<vehicle depart="11.33" departLane="free" departSpeed="max" id="2643" type="CV">
		<route edges="genE318 genE307"/>
	</vehicle>
	<vehicle depart="15.9" departLane="free" departSpeed="max" id="2542" type="HV">
		<route edges="genE318 genE297"/>
	</vehicle>
	<vehicle depart="18.86" departLane="free" departSpeed="max" id="3452" type="CV">
		<route edges="genE316 genE297"/>
	</vehicle>
	<vehicle depart="19.73" departLane="free" departSpeed="max" id="2516" type="HV">
		<route edges="genE318 genE297"/>
	</vehicle>
	<vehicle depart="22.69" departLane="free" departSpeed="max" id="3034" type="HV">
		<route edges="genE296 genE317"/>
	</vehicle>
	<vehicle depart="25.12" departLane="free" departSpeed="max" id="3293" type="HV">
		<route edges="genE316 genE297"/>
	</vehicle>
	<vehicle depart="25.74" departLane="free" departSpeed="max" id="3624" type="CV">
		<route edges="genE316 genE317"/>
	</vehicle>
	<vehicle depart="27.26" departLane="free" departSpeed="max" id="3425" type="HV">
		<route edges="genE316 genE297"/>
	</vehicle>
	<vehicle depart="29.89" departLane="free" departSpeed="max" id="3545" type="CV">
		<route edges="genE316 genE317"/>
	</vehicle>
	<vehicle depart="35.9" departLane="free" departSpeed="max" id="3662" type="HV">
		<route edges="genE316 genE317"/>
	</vehicle>
	<vehicle depart="36.22" departLane="free" departSpeed="max" id="3000" type="CV">
		<route edges="genE296 genE317"/>
	</vehicle>
	<vehicle depart="37.59" departLane="free" departSpeed="max" id="2968" type="HV">
		<route edges="genE296 genE307"/>
	</vehicle>
	<vehicle depart="42.24" departLane="free" departSpeed="max" id="3361" type="HV">
		<route edges="genE316 genE297"/>
	</vehicle>
	<vehicle depart="42.31" departLane="free" departSpeed="max" id="3614" type="HV">
		<route edges="genE316 genE317"/>
	</vehicle>
	<vehicle depart="42.4" departLane="free" departSpeed="max" id="3566" type="HV">
		<route edges="genE316 genE317"/>
	</vehicle>
	<vehicle depart="42.53" departLane="free" departSpeed="max" id="3672" type="HV">
		<route edges="genE316 genE317"/>
	</vehicle>
	<vehicle depart="46.85" departLane="free" departSpeed="max" id="2847" type="CV">
		<route edges="genE296 genE307"/>
	</vehicle>
	<vehicle depart="47.47" departLane="free" departSpeed="max" id="3646" type="HV">
		<route edges="genE316 genE317"/>
	</vehicle>
	<vehicle depart="49.86" departLane="free" departSpeed="max" id="2851" type="HV">
		<route edges="genE296 genE307"/>
	</vehicle>
	<vehicle depart="52.62" departLane="free" departSpeed="max" id="3141" type="HV">
		<route edges="genE296 genE317"/>
	</vehicle>
	<vehicle depart="53.26" departLane="free" departSpeed="max" id="3558" type="HV">
		<route edges="genE316 genE317"/>
	</vehicle>
	<vehicle depart="53.56" departLane="free" departSpeed="max" id="3441" type="CV">
		<route edges="genE316 genE297"/>
	</vehicle>
	<vehicle depart="55.81" departLane="free" departSpeed="max" id="2781" type="HV">
		<route edges="genE296 genE307"/>
	</vehicle>
	<vehicle depart="56.04" departLane="free" departSpeed="max" id="3383" type="HV">
		<route edges="genE316 genE297"/>
	</vehicle>
	<vehicle depart="58.71" departLane="free" departSpeed="max" id="2723" type="HV">
		<route edges="genE318 genE307"/>
	</vehicle>
	<vehicle depart="58.83" departLane="free" departSpeed="max" id="3337" type="HV">
		<route edges="genE316 genE297"/>
	</vehicle>
	<vehicle depart="59.01" departLane="free" departSpeed="max" id="3663" type="HV">
		<route edges="genE316 genE317"/>
	</vehicle>
	<vehicle depart="59.75" departLane="free" departSpeed="max" id="2750" type="HV">
		<route edges="genE296 genE307"/>
	</vehicle>
	<vehicle depart="60.66" departLane="free" departSpeed="max" id="3586" type="HV">
		<route edges="genE316 genE317"/>
	</vehicle>
	<vehicle depart="71.75" departLane="free" departSpeed="max" id="3665" type="HV">
		<route edges="genE316 genE317"/>
	</vehicle>
	<vehicle depart="74.14" departLane="free" departSpeed="max" id="3019" type="HV">
		<route edges="genE296 genE317"/>
	</vehicle>
	<vehicle depart="74.54" departLane="free" departSpeed="max" id="2537" type="HV">
		<route edges="genE318 genE297"/>
	</vehicle>
	<vehicle depart="80.18" departLane="free" departSpeed="max" id="2614" type="CV">
		<route edges="genE318 genE307"/>
	</vehicle>
	<vehicle depart="82.31" departLane="free" departSpeed="max" id="3406" type="CV">
		<route edges="genE316 genE297"/>
	</vehicle>
	<vehicle depart="83.03" departLane="free" departSpeed="max" id="3594" type="HV">
		<route edges="genE316 genE317"/>
	</vehicle>
	<vehicle depart="83.37" departLane="free" departSpeed="max" id="3146" type="HV">
		<route edges="genE296 genE317"/>
	</vehicle>
	<vehicle depart="83.44" departLane="free" departSpeed="max" id="2749" type="HV">
		<route edges="genE296 genE307"/>
	</vehicle>
	<vehicle depart="85.77" departLane="free" departSpeed="max" id="2926" type="HV">
		<route edges="genE296 genE307"/>
	</vehicle>
	<vehicle depart="92.85" departLane="free" departSpeed="max" id="3306" type="HV">
		<route edges="genE316 genE297"/>
	</vehicle>
	<vehicle depart="94.22" departLane="free" departSpeed="max" id="2675" type="CV">
		<route edges="genE318 genE307"/>
	</vehicle>
	<vehicle depart="95.74" departLane="free" departSpeed="max" id="3717" type="HV">
		<route edges="genE316 genE317"/>
	</vehicle>
	<vehicle depart="97.49" departLane="free" departSpeed="max" id="2975" type="HV">
		<route edges="genE296 genE307"/>
	</vehicle>
	<vehicle depart="98.4" departLane="free" departSpeed="max" id="3707" type="HV">
		<route edges="genE316 genE317"/>
	</vehicle>
	<vehicle depart="100.87" departLane="free" departSpeed="max" id="3430" type="HV">
		<route edges="genE316 genE297"/>
	</vehicle>
	<vehicle depart="108.26" departLane="free" departSpeed="max" id="3202" type="HV">
		<route edges="genE296 genE317"/>
	</vehicle>
	<vehicle depart="109.13" departLane="free" departSpeed="max" id="2833" type="HV">
		<route edges="genE296 genE307"/>
	</vehicle>
	<vehicle depart="112.78" departLane="free" departSpeed="max" id="2776" type="HV">
		<route edges="genE296 genE307"/>
	</vehicle>
	<vehicle depart="128.0" departLane="free" departSpeed="max" id="3609" type="HV">
		<route edges="genE316 genE317"/>
	</vehicle>
	<vehicle depart="132.47" departLane="free" departSpeed="max" id="3045" type="HV">
		<route edges="genE296 genE317"/>
	</vehicle>
	<vehicle depart="132.83" departLane="free" departSpeed="max" id="3686" type="HV">
		<route edges="genE316 genE317"/>
	</vehicle>
	<vehicle depart="134.9" departLane="free" departSpeed="max" id="3043" type="HV">
		<route edges="genE296 genE317"/>
	</vehicle>
	<vehicle depart="136.05" departLane="free" departSpeed="max" id="2773" type="HV">
		<route edges="genE296 genE307"/>
	</vehicle>
	<vehicle depart="136.78" departLane="free" departSpeed="max" id="2476" type="HV">
		<route edges="genE318 genE297"/>
	</vehicle>
	<vehicle depart="137.39" departLane="free" departSpeed="max" id="2480" type="HV">
		<route edges="genE318 genE297"/>
	</vehicle>
	<vehicle depart="141.46" departLane="free" departSpeed="max" id="2622" type="CV">
		<route edges="genE318 genE307"/>
	</vehicle>
	<vehicle depart="144.31" departLane="free" departSpeed="max" id="3227" type="CV">
		<route edges="genE296 genE317"/>
	</vehicle>
	<vehicle depart="146.07" departLane="free" departSpeed="max" id="3522" type="CV">
		<route edges="genE316 genE297"/>
	</vehicle>
	<vehicle depart="150.88" departLane="free" departSpeed="max" id="2718" type="HV">
		<route edges="genE318 genE307"/>
	</vehicle>
	<vehicle depart="151.13" departLane="free" departSpeed="max" id="2477" type="CV">
		<route edges="genE318 genE297"/>
	</vehicle>
	<vehicle depart="153.01" departLane="free" departSpeed="max" id="3733" type="HV">
		<route edges="genE316 genE317"/>
	</vehicle>
	<vehicle depart="162.24" departLane="free" departSpeed="max" id="3304" type="HV">
		<route edges="genE316 genE297"/>
	</vehicle>
	<vehicle depart="163.13" departLane="free" departSpeed="max" id="2909" type="HV">
		<route edges="genE296 genE307"/>
	</vehicle>
	<vehicle depart="164.21" departLane="free" departSpeed="max" id="2807" type="HV">
		<route edges="genE296 genE307"/>
	</vehicle>
	<vehicle depart="168.5" departLane="free" departSpeed="max" id="3674" type="HV">
		<route edges="genE316 genE317"/>
	</vehicle>
	<vehicle depart="169.93" departLane="free" departSpeed="max" id="3257" type="HV">
		<route edges="genE296 genE317"/>
	</vehicle>
	<vehicle depart="170.35" departLane="free" departSpeed="max" id="3332" type="HV">
		<route edges="genE316 genE297"/>
	</vehicle>
	<vehicle depart="172.29" departLane="free" departSpeed="max" id="2466" type="HV">
		<route edges="genE318 genE297"/>
	</vehicle>
	<vehicle depart="174.2" departLane="free" departSpeed="max" id="2901" type="HV">
		<route edges="genE296 genE307"/>
	</vehicle>
	<vehicle depart="174.7" departLane="free" departSpeed="max" id="2551" type="HV">
		<route edges="genE318 genE297"/>
	</vehicle>
	<vehicle depart="178.53" departLane="free" departSpeed="max" id="3467" type="HV">
		<route edges="genE316 genE297"/>
	</vehicle>
	<vehicle depart="182.09" departLane="free" departSpeed="max" id="3428" type="HV">
		<route edges="genE316 genE297"/>
	</vehicle>
	<vehicle depart="183.15" departLane="free" departSpeed="max" id="3198" type="HV">
		<route edges="genE296 genE317"/>
	</vehicle>
	<vehicle depart="185.35" departLane="free" departSpeed="max" id="3525" type="HV">
		<route edges="genE316 genE297"/>
	</vehicle>
	<vehicle depart="188.75" departLane="free" departSpeed="max" id="3122" type="HV">
		<route edges="genE296 genE317"/>
	</vehicle>
	<vehicle depart="191.17" departLane="free" departSpeed="max" id="3251" type="HV">
		<route edges="genE296 genE317"/>
	</vehicle>
	<vehicle depart="192.98" departLane="free" departSpeed="max" id="3001" type="HV">
		<route edges="genE296 genE317"/>
	</vehicle>
	<vehicle depart="193.97" departLane="free" departSpeed="max" id="3069" type="HV">
		<route edges="genE296 genE317"/>
	</vehicle>
	<vehicle depart="196.98" departLane="free" departSpeed="max" id="3266" type="CV">
		<route edges="genE316 genE297"/>
	</vehicle>
	<vehicle depart="197.45" departLane="free" departSpeed="max" id="3089" type="HV">
		<route edges="genE296 genE317"/>
	</vehicle>
	<vehicle depart="199.14" departLane="free" departSpeed="max" id="3158" type="HV">
		<route edges="genE296 genE317"/>
	</vehicle>
	<vehicle depart="201.52" departLane="free" departSpeed="max" id="3421" type="HV">
		<route edges="genE316 genE297"/>
	</vehicle>
	<vehicle depart="203.2" departLane="free" departSpeed="max" id="3598" type="CV">
		<route edges="genE316 genE317"/>
	</vehicle>
	<vehicle depart="204.83" departLane="free" departSpeed="max" id="3171" type="CV">
		<route edges="genE296 genE317"/>
	</vehicle>
	<vehicle depart="213.04" departLane="free" departSpeed="max" id="2502" type="HV">
		<route edges="genE318 genE297"/>
	</vehicle>
	<vehicle depart="217.73" departLane="free" departSpeed="max" id="2864" type="HV">
		<route edges="genE296 genE307"/>
	</vehicle>
	<vehicle depart="219.54" departLane="free" departSpeed="max" id="2727" type="HV">
		<route edges="genE318 genE307"/>
	</vehicle>
	<vehicle depart="220.48" departLane="free" departSpeed="max" id="2662" type="HV">
		<route edges="genE318 genE307"/>
	</vehicle>
	<vehicle depart="224.99" departLane="free" departSpeed="max" id="3250" type="HV">
		<route edges="genE296 genE317"/>
	</vehicle>
	<vehicle depart="227.53" departLane="free" departSpeed="max" id="3450" type="HV">
		<route edges="genE316 genE297"/>
	</vehicle>
	<vehicle depart="228.04" departLane="free" departSpeed="max" id="2991" type="CV">
		<route edges="genE296 genE317"/>
	</vehicle>
	<vehicle depart="229.3" departLane="free" departSpeed="max" id="3348" type="CV">
		<route edges="genE316 genE297"/>
	</vehicle>
	<vehicle depart="231.93" departLane="free" departSpeed="max" id="3673" type="HV">
		<route edges="genE316 genE317"/>
	</vehicle>
	<vehicle depart="232.62" departLane="free" departSpeed="max" id="2710" type="CV">
		<route edges="genE318 genE307"/>
	</vehicle>
	<vehicle depart="233.34" departLane="free" departSpeed="max" id="2816" type="HV">
		<route edges="genE296 genE307"/>
	</vehicle>
	<vehicle depart="233.93" departLane="free" departSpeed="max" id="2771" type="HV">
		<route edges="genE296 genE307"/>
	</vehicle>
	<vehicle depart="234.82" departLane="free" departSpeed="max" id="2684" type="HV">
		<route edges="genE318 genE307"/>
	</vehicle>
	<vehicle depart="241.56" departLane="free" departSpeed="max" id="2896" type="CV">
		<route edges="genE296 genE307"/>
	</vehicle>
	<vehicle depart="241.71" departLane="free" departSpeed="max" id="2788" type="HV">
		<route edges="genE296 genE307"/>
	</vehicle>
	<vehicle depart="242.79" departLane="free" departSpeed="max" id="2978" type="CV">
		<route edges="genE296 genE307"/>
	</vehicle>
	<vehicle depart="246.36" departLane="free" departSpeed="max" id="2572" type="HV">
		<route edges="genE318 genE307"/>
	</vehicle>
	<vehicle depart="247.87" departLane="free" departSpeed="max" id="2787" type="HV">
		<route edges="genE296 genE307"/>
	</vehicle>
	<vehicle depart="250.22" departLane="free" departSpeed="max" id="3073" type="HV">
		<route edges="genE296 genE317"/>
	</vehicle>
	<vehicle depart="255.26" departLane="free" departSpeed="max" id="3123" type="HV">
		<route edges="genE296 genE317"/>
	</vehicle>
	<vehicle depart="256.52" departLane="free" departSpeed="max" id="3298" type="HV">
		<route edges="genE316 genE297"/>
	</vehicle>
	<vehicle depart="265.48" departLane="free" departSpeed="max" id="3569" type="HV">
		<route edges="genE316 genE317"/>
	</vehicle>
	<vehicle depart="265.9" departLane="free" departSpeed="max" id="2487" type="CV">
		<route edges="genE318 genE297"/>
	</vehicle>
	<vehicle depart="269.68" departLane="free" departSpeed="max" id="3507" type="HV">
		<route edges="genE316 genE297"/>
	</vehicle>
	<vehicle depart="271.09" departLane="free" departSpeed="max" id="3728" type="HV">
		<route edges="genE316 genE317"/>
	</vehicle>
	<vehicle depart="274.26" departLane="free" departSpeed="max" id="3276" type="CV">
		<route edges="genE316 genE297"/>
	</vehicle>
	<vehicle depart="277.93" departLane="free" departSpeed="max" id="3097" type="CV">
		<route edges="genE296 genE317"/>
	</vehicle>
	<vehicle depart="278.95" departLane="free" departSpeed="max" id="3465" type="HV">
		<route edges="genE316 genE297"/>
	</vehicle>
	<vehicle depart="282.32" departLane="free" departSpeed="max" id="2539" type="HV">
		<route edges="genE318 genE297"/>
	</vehicle>
	<vehicle depart="285.21" departLane="free" departSpeed="max" id="3174" type="HV">
		<route edges="genE296 genE317"/>
	</vehicle>
	<vehicle depart="288.51" departLane="free" departSpeed="max" id="3139" type="CV">
		<route edges="genE296 genE317"/>
	</vehicle>
	<vehicle depart="291.32" departLane="free" departSpeed="max" id="3387" type="HV">
		<route edges="genE316 genE297"/>
	</vehicle>
	<vehicle depart="292.52" departLane="free" departSpeed="max" id="2767" type="HV">
		<route edges="genE296 genE307"/>
	</vehicle>
	<vehicle depart="298.21" departLane="free" departSpeed="max" id="2619" type="HV">
		<route edges="genE318 genE307"/>
	</vehicle>
	<vehicle depart="299.18" departLane="free" departSpeed="max" id="3012" type="HV">
		<route edges="genE296 genE317"/>
	</vehicle>
	<vehicle depart="308.66" departLane="free" departSpeed="max" id="2874" type="CV">
		<route edges="genE296 genE307"/>
	</vehicle>
	<vehicle depart="312.15" departLane="free" departSpeed="max" id="3022" type="HV">
		<route edges="genE296 genE317"/>
	</vehicle>
	<vehicle depart="315.02" departLane="free" departSpeed="max" id="3165" type="HV">
		<route edges="genE296 genE317"/>
	</vehicle>
	<vehicle depart="319.23" departLane="free" departSpeed="max" id="2861" type="HV">
		<route edges="genE296 genE307"/>
	</vehicle>
	<vehicle depart="319.33" departLane="free" departSpeed="max" id="2794" type="HV">
		<route edges="genE296 genE307"/>
	</vehicle>
	<vehicle depart="328.63" departLane="free" departSpeed="max" id="3112" type="HV">
		<route edges="genE296 genE317"/>
	</vehicle>
	<vehicle depart="329.88" departLane="free" departSpeed="max" id="2550" type="HV">
		<route edges="genE318 genE297"/>
	</vehicle>
	<vehicle depart="330.82" departLane="free" departSpeed="max" id="2819" type="HV">
		<route edges="genE296 genE307"/>
	</vehicle>
	<vehicle depart="333.06" departLane="free" departSpeed="max" id="3081" type="HV">
		<route edges="genE296 genE317"/>
	</vehicle>
	<vehicle depart="333.16" departLane="free" departSpeed="max" id="3309" type="HV">
		<route edges="genE316 genE297"/>
	</vehicle>
	<vehicle depart="333.26" departLane="free" departSpeed="max" id="3046" type="HV">
		<route edges="genE296 genE317"/>
	</vehicle>
	<vehicle depart="334.44" departLane="free" departSpeed="max" id="3035" type="HV">
		<route edges="genE296 genE317"/>
	</vehicle>
	<vehicle depart="334.66" departLane="free" departSpeed="max" id="2894" type="HV">
		<route edges="genE296 genE307"/>
	</vehicle>
	<vehicle depart="337.65" departLane="free" departSpeed="max" id="3684" type="HV">
		<route edges="genE316 genE317"/>
	</vehicle>
	<vehicle depart="340.48" departLane="free" departSpeed="max" id="2893" type="CV">
		<route edges="genE296 genE307"/>
	</vehicle>
	<vehicle depart="345.55" departLane="free" departSpeed="max" id="3478" type="HV">
		<route edges="genE316 genE297"/>
	</vehicle>
	<vehicle depart="352.8" departLane="free" departSpeed="max" id="2488" type="CV">
		<route edges="genE318 genE297"/>
	</vehicle>
	<vehicle depart="360.56" departLane="free" departSpeed="max" id="2985" type="HV">
		<route edges="genE296 genE307"/>
	</vehicle>
	<vehicle depart="361.91" departLane="free" departSpeed="max" id="2792" type="HV">
		<route edges="genE296 genE307"/>
	</vehicle>
	<vehicle depart="367.31" departLane="free" departSpeed="max" id="3423" type="HV">
		<route edges="genE316 genE297"/>
	</vehicle>
	<vehicle depart="378.68" departLane="free" departSpeed="max" id="2608" type="HV">
		<route edges="genE318 genE307"/>
	</vehicle>
	<vehicle depart="378.97" departLane="free" departSpeed="max" id="3083" type="HV">
		<route edges="genE296 genE317"/>
	</vehicle>
	<vehicle depart="379.63" departLane="free" departSpeed="max" id="3310" type="CV">
		<route edges="genE316 genE297"/>
	</vehicle>
	<vehicle depart="380.11" departLane="free" departSpeed="max" id="2986" type="HV">
		<route edges="genE296 genE307"/>
	</vehicle>
	<vehicle depart="380.51" departLane="free" departSpeed="max" id="3694" type="HV">
		<route edges="genE316 genE317"/>
	</vehicle>
	<vehicle depart="381.57" departLane="free" departSpeed="max" id="2588" type="CV">
		<route edges="genE318 genE307"/>
	</vehicle>
	<vehicle depart="383.51" departLane="free" departSpeed="max" id="2790" type="HV">
		<route edges="genE296 genE307"/>
	</vehicle>
	<vehicle depart="389.99" departLane="free" departSpeed="max" id="3705" type="HV">
		<route edges="genE316 genE317"/>
	</vehicle>
	<vehicle depart="398.36" departLane="free" departSpeed="max" id="2989" type="HV">
		<route edges="genE296 genE307"/>
	</vehicle>
	<vehicle depart="402.08" departLane="free" departSpeed="max" id="3397" type="CV">
		<route edges="genE316 genE297"/>
	</vehicle>
	<vehicle depart="402.46" departLane="free" departSpeed="max" id="2835" type="HV">
		<route edges="genE296 genE307"/>
	</vehicle>
	<vehicle depart="406.44" departLane="free" departSpeed="max" id="2573" type="HV">
		<route edges="genE318 genE307"/>
	</vehicle>
	<vehicle depart="408.09" departLane="free" departSpeed="max" id="3278" type="HV">
		<route edges="genE316 genE297"/>
	</vehicle>
	<vehicle depart="410.15" departLane="free" departSpeed="max" id="3125" type="CV">
		<route edges="genE296 genE317"/>
	</vehicle>
	<vehicle depart="412.25" departLane="free" departSpeed="max" id="3129" type="CV">
		<route edges="genE296 genE317"/>
	</vehicle>
	<vehicle depart="412.84" departLane="free" departSpeed="max" id="2611" type="HV">
		<route edges="genE318 genE307"/>
	</vehicle>
	<vehicle depart="413.05" departLane="free" departSpeed="max" id="3471" type="HV">
		<route edges="genE316 genE297"/>
	</vehicle>
	<vehicle depart="414.54" departLane="free" departSpeed="max" id="3075" type="CV">
		<route edges="genE296 genE317"/>
	</vehicle>
	<vehicle depart="414.61" departLane="free" departSpeed="max" id="3015" type="HV">
		<route edges="genE296 genE317"/>
	</vehicle>
	<vehicle depart="416.22" departLane="free" departSpeed="max" id="3205" type="HV">
		<route edges="genE296 genE317"/>
	</vehicle>
	<vehicle depart="417.94" departLane="free" departSpeed="max" id="2834" type="HV">
		<route edges="genE296 genE307"/>
	</vehicle>
	<vehicle depart="420.8" departLane="free" departSpeed="max" id="3342" type="HV">
		<route edges="genE316 genE297"/>
	</vehicle>
	<vehicle depart="421.97" departLane="free" departSpeed="max" id="3302" type="HV">
		<route edges="genE316 genE297"/>
	</vehicle>
	<vehicle depart="427.54" departLane="free" departSpeed="max" id="3600" type="CV">
		<route edges="genE316 genE317"/>
	</vehicle>
	<vehicle depart="428.48" departLane="free" departSpeed="max" id="2828" type="HV">
		<route edges="genE296 genE307"/>
	</vehicle>
	<vehicle depart="432.81" departLane="free" departSpeed="max" id="2806" type="HV">
		<route edges="genE296 genE307"/>
	</vehicle>
	<vehicle depart="433.05" departLane="free" departSpeed="max" id="3033" type="HV">
		<route edges="genE296 genE317"/>
	</vehicle>
	<vehicle depart="437.93" departLane="free" departSpeed="max" id="2642" type="HV">
		<route edges="genE318 genE307"/>
	</vehicle>
	<vehicle depart="441.05" departLane="free" departSpeed="max" id="3157" type="HV">
		<route edges="genE296 genE317"/>
	</vehicle>
	<vehicle depart="444.65" departLane="free" departSpeed="max" id="3258" type="CV">
		<route edges="genE296 genE317"/>
	</vehicle>
	<vehicle depart="446.04" departLane="free" departSpeed="max" id="3723" type="HV">
		<route edges="genE316 genE317"/>
	</vehicle>
	<vehicle depart="450.52" departLane="free" departSpeed="max" id="2803" type="HV">
		<route edges="genE296 genE307"/>
	</vehicle>
	<vehicle depart="451.94" departLane="free" departSpeed="max" id="2972" type="HV">
		<route edges="genE296 genE307"/>
	</vehicle>
	<vehicle depart="452.73" departLane="free" departSpeed="max" id="2793" type="HV">
		<route edges="genE296 genE307"/>
	</vehicle>
	<vehicle depart="453.98" departLane="free" departSpeed="max" id="3493" type="HV">
		<route edges="genE316 genE297"/>
	</vehicle>
	<vehicle depart="455.55" departLane="free" departSpeed="max" id="3626" type="HV">
		<route edges="genE316 genE317"/>
	</vehicle>
	<vehicle depart="460.83" departLane="free" departSpeed="max" id="2506" type="HV">
		<route edges="genE318 genE297"/>
	</vehicle>
	<vehicle depart="469.4" departLane="free" departSpeed="max" id="2872" type="HV">
		<route edges="genE296 genE307"/>
	</vehicle>
	<vehicle depart="470.5" departLane="free" departSpeed="max" id="3524" type="HV">
		<route edges="genE316 genE297"/>
	</vehicle>
	<vehicle depart="473.7" departLane="free" departSpeed="max" id="3700" type="HV">
		<route edges="genE316 genE317"/>
	</vehicle>
	<vehicle depart="476.54" departLane="free" departSpeed="max" id="2911" type="HV">
		<route edges="genE296 genE307"/>
	</vehicle>
	<vehicle depart="479.91" departLane="free" departSpeed="max" id="3420" type="HV">
		<route edges="genE316 genE297"/>
	</vehicle>
	<vehicle depart="493.09" departLane="free" departSpeed="max" id="3593" type="HV">
		<route edges="genE316 genE317"/>
	</vehicle>
	<vehicle depart="496.97" departLane="free" departSpeed="max" id="3056" type="HV">
		<route edges="genE296 genE317"/>
	</vehicle>
	<vehicle depart="499.45" departLane="free" departSpeed="max" id="2673" type="HV">
		<route edges="genE318 genE307"/>
	</vehicle>
	<vehicle depart="500.17" departLane="free" departSpeed="max" id="2703" type="HV">
		<route edges="genE318 genE307"/>
	</vehicle>
	<vehicle depart="501.9" departLane="free" departSpeed="max" id="2652" type="HV">
		<route edges="genE318 genE307"/>
	</vehicle>
	<vehicle depart="503.43" departLane="free" departSpeed="max" id="3562" type="HV">
		<route edges="genE316 genE317"/>
	</vehicle>
	<vehicle depart="505.3" departLane="free" departSpeed="max" id="3025" type="CV">
		<route edges="genE296 genE317"/>
	</vehicle>
	<vehicle depart="506.9" departLane="free" departSpeed="max" id="3520" type="CV">
		<route edges="genE316 genE297"/>
	</vehicle>
	<vehicle depart="507.44" departLane="free" departSpeed="max" id="3739" type="HV">
		<route edges="genE316 genE317"/>
	</vehicle>
	<vehicle depart="508.34" departLane="free" departSpeed="max" id="3540" type="CV">
		<route edges="genE316 genE317"/>
	</vehicle>
	<vehicle depart="509.31" departLane="free" departSpeed="max" id="3654" type="HV">
		<route edges="genE316 genE317"/>
	</vehicle>
	<vehicle depart="513.55" departLane="free" departSpeed="max" id="3466" type="HV">
		<route edges="genE316 genE297"/>
	</vehicle>
	<vehicle depart="515.49" departLane="free" departSpeed="max" id="3541" type="HV">
		<route edges="genE316 genE317"/>
	</vehicle>
	<vehicle depart="517.47" departLane="free" departSpeed="max" id="2519" type="CV">
		<route edges="genE318 genE297"/>
	</vehicle>
	<vehicle depart="520.73" departLane="free" departSpeed="max" id="3431" type="HV">
		<route edges="genE316 genE297"/>
	</vehicle>
	<vehicle depart="524.45" departLane="free" departSpeed="max" id="3126" type="CV">
		<route edges="genE296 genE317"/>
	</vehicle>
	<vehicle depart="524.82" departLane="free" departSpeed="max" id="2464" type="CV">
		<route edges="genE318 genE297"/>
	</vehicle>
	<vehicle depart="528.12" departLane="free" departSpeed="max" id="3006" type="HV">
		<route edges="genE296 genE317"/>
	</vehicle>
	<vehicle depart="529.67" departLane="free" departSpeed="max" id="3511" type="HV">
		<route edges="genE316 genE297"/>
	</vehicle>
	<vehicle depart="536.37" departLane="free" departSpeed="max" id="2518" type="HV">
		<route edges="genE318 genE297"/>
	</vehicle>
	<vehicle depart="536.53" departLane="free" departSpeed="max" id="2605" type="HV">
		<route edges="genE318 genE307"/>
	</vehicle>
	<vehicle depart="537.35" departLane="free" departSpeed="max" id="3374" type="HV">
		<route edges="genE316 genE297"/>
	</vehicle>
	<vehicle depart="537.44" departLane="free" departSpeed="max" id="2589" type="HV">
		<route edges="genE318 genE307"/>
	</vehicle>
	<vehicle depart="539.83" departLane="free" departSpeed="max" id="3346" type="HV">
		<route edges="genE316 genE297"/>
	</vehicle>
	<vehicle depart="541.07" departLane="free" departSpeed="max" id="2797" type="HV">
		<route edges="genE296 genE307"/>
	</vehicle>
	<vehicle depart="542.15" departLane="free" departSpeed="max" id="2940" type="CV">
		<route edges="genE296 genE307"/>
	</vehicle>
	<vehicle depart="543.72" departLane="free" departSpeed="max" id="3299" type="HV">
		<route edges="genE316 genE297"/>
	</vehicle>
	<vehicle depart="549.66" departLane="free" departSpeed="max" id="3093" type="CV">
		<route edges="genE296 genE317"/>
	</vehicle>
	<vehicle depart="557.29" departLane="free" departSpeed="max" id="3619" type="HV">
		<route edges="genE316 genE317"/>
	</vehicle>
	<vehicle depart="558.61" departLane="free" departSpeed="max" id="3267" type="HV">
		<route edges="genE316 genE297"/>
	</vehicle>
	<vehicle depart="560.22" departLane="free" departSpeed="max" id="2596" type="HV">
		<route edges="genE318 genE307"/>
	</vehicle>
	<vehicle depart="560.33" departLane="free" departSpeed="max" id="3571" type="HV">
		<route edges="genE316 genE317"/>
	</vehicle>
	<vehicle depart="566.78" departLane="free" departSpeed="max" id="2504" type="HV">
		<route edges="genE318 genE297"/>
	</vehicle>
	<vehicle depart="568.69" departLane="free" departSpeed="max" id="3099" type="HV">
		<route edges="genE296 genE317"/>
	</vehicle>
	<vehicle depart="570.59" departLane="free" departSpeed="max" id="3468" type="HV">
		<route edges="genE316 genE297"/>
	</vehicle>
	<vehicle depart="576.0" departLane="free" departSpeed="max" id="2620" type="HV">
		<route edges="genE318 genE307"/>
	</vehicle>
	<vehicle depart="576.88" departLane="free" departSpeed="max" id="3435" type="HV">
		<route edges="genE316 genE297"/>
	</vehicle>
	<vehicle depart="577.34" departLane="free" departSpeed="max" id="3365" type="HV">
		<route edges="genE316 genE297"/>
	</vehicle>
	<vehicle depart="580.53" departLane="free" departSpeed="max" id="3350" type="HV">
		<route edges="genE316 genE297"/>
	</vehicle>
	<vehicle depart="582.22" departLane="free" departSpeed="max" id="3291" type="CV">
		<route edges="genE316 genE297"/>
	</vehicle>
	<vehicle depart="583.09" departLane="free" departSpeed="max" id="2808" type="CV">
		<route edges="genE296 genE307"/>
	</vehicle>
	<vehicle depart="592.4" departLane="free" departSpeed="max" id="3268" type="CV">
		<route edges="genE316 genE297"/>
	</vehicle>
	<vehicle depart="602.72" departLane="free" departSpeed="max" id="2523" type="HV">
		<route edges="genE318 genE297"/>
	</vehicle>
	<vehicle depart="602.88" departLane="free" departSpeed="max" id="2694" type="HV">
		<route edges="genE318 genE307"/>
	</vehicle>
	<vehicle depart="603.36" departLane="free" departSpeed="max" id="2964" type="HV">
		<route edges="genE296 genE307"/>
	</vehicle>
	<vehicle depart="606.31" departLane="free" departSpeed="max" id="3092" type="HV">