<?xml version="1.0" ?>
<routes>
	<vType accel="0.8" decel="4.5" id="CV" length="5" maxSpeed="45" sigma="0.5"/>
	<vType accel="0.8" decel="4.5" id="HV" length="5" maxSpeed="40" sigma="0.5"/>
	<vehicle depart="2.32" departLane="free" departSpeed="max" id="13455" type="CV">
		<route edges="genE318 genE307"/>
	</vehicle>
	<vehicle depart="3.46" departLane="free" departSpeed="max" id="14228" type="HV">
		<route edges="genE316 genE317"/>
	</vehicle>
	<vehicle depart="8.06" departLane="free" departSpeed="max" id="14117" type="HV">
		<route edges="genE316 genE297"/>
	</vehicle>
	<vehicle depart="12.78" departLane="free" departSpeed="max" id="13388" type="HV">
		<route edges="genE318 genE307"/>
	</vehicle>
	<vehicle depart="23.71" departLane="free" departSpeed="max" id="14059" type="CV">
		<route edges="genE316 genE297"/>
	</vehicle>
	<vehicle depart="28.04" departLane="free" departSpeed="max" id="13895" type="HV">
		<route edges="genE296 genE317"/>
	</vehicle>
	<vehicle depart="30.66" departLane="free" departSpeed="max" id="13482" type="HV">
		<route edges="genE318 genE307"/>
	</vehicle>
	<vehicle depart="46.08" departLane="free" departSpeed="max" id="13814" type="HV">
		<route edges="genE296 genE317"/>
	</vehicle>
	<vehicle depart="47.08" departLane="free" departSpeed="max" id="13299" type="HV">
		<route edges="genE318 genE297"/>
	</vehicle>
	<vehicle depart="50.22" departLane="free" departSpeed="max" id="13901" type="CV">
		<route edges="genE296 genE317"/>
	</vehicle>
	<vehicle depart="55.7" departLane="free" departSpeed="max" id="13761" type="HV">
		<route edges="genE296 genE317"/>
	</vehicle>
	<vehicle depart="59.76" departLane="free" departSpeed="max" id="14008" type="HV">
		<route edges="genE316 genE297"/>
	</vehicle>
	<vehicle depart="63.2" departLane="free" departSpeed="max" id="14271" type="HV">
		<route edges="genE316 genE317"/>
	</vehicle>
	<vehicle depart="73.51" departLane="free" departSpeed="max" id="14083" type="HV">
		<route edges="genE316 genE297"/>
	</vehicle>
	<vehicle depart="87.11" departLane="free" departSpeed="max" id="13710" type="CV">
		<route edges="genE296 genE307"/>
	</vehicle>
	<vehicle depart="87.52" departLane="free" departSpeed="max" id="13899" type="HV">
		<route edges="genE296 genE317"/>
	</vehicle>
	<vehicle depart="93.27" departLane="free" departSpeed="max" id="14209" type="HV">
		<route edges="genE316 genE317"/>
	</vehicle>
	<vehicle depart="93.62" departLane="free" departSpeed="max" id="14048" type="HV">
		<route edges="genE316 genE297"/>
	</vehicle>
	<vehicle depart="98.09" departLane="free" departSpeed="max" id="13946" type="HV">
		<route edges="genE316 genE297"/>
	</vehicle>
	<vehicle depart="102.76" departLane="free" departSpeed="max" id="14321" type="CV">
		<route edges="genE316 genE317"/>
	</vehicle>
	<vehicle depart="108.44" departLane="free" departSpeed="max" id="13948" type="CV">
		<route edges="genE316 genE297"/>
	</vehicle>
	<vehicle depart="109.93" departLane="free" departSpeed="max" id="14037" type="HV">
		<route edges="genE316 genE297"/>
	</vehicle>
	<vehicle depart="115.75" departLane="free" departSpeed="max" id="13644" type="CV">
		<route edges="genE296 genE307"/>
	</vehicle>
	<vehicle depart="116.36" departLane="free" departSpeed="max" id="14279" type="CV">
		<route edges="genE316 genE317"/>
	</vehicle>
	<vehicle depart="118.79" departLane="free" departSpeed="max" id="13508" type="HV">
		<route edges="genE318 genE307"/>
	</vehicle>
	<vehicle depart="121.15" departLane="free" departSpeed="max" id="13966" type="HV">
		<route edges="genE316 genE297"/>
	</vehicle>
	<vehicle depart="122.35" departLane="free" departSpeed="max" id="13601" type="HV">
		<route edges="genE296 genE307"/>
	</vehicle>
	<vehicle depart="122.5" departLane="free" departSpeed="max" id="13622" type="HV">
		<route edges="genE296 genE307"/>
	</vehicle>
	<vehicle depart="133.22" departLane="free" departSpeed="max" id="14092" type="HV">
		<route edges="genE316 genE297"/>
	</vehicle>
	<vehicle depart="138.8" departLane="free" departSpeed="max" id="13664" type="CV">
		<route edges="genE296 genE307"/>
	</vehicle>
	<vehicle depart="140.78" departLane="free" departSpeed="max" id="13731" type="HV">
		<route edges="genE296 genE317"/>
	</vehicle>
	<vehicle depart="144.38" departLane="free" departSpeed="max" id="14194" type="HV">
		<route edges="genE316 genE317"/>
	</vehicle>
	<vehicle depart="145.21" departLane="free" departSpeed="max" id="13395" type="HV">
		<route edges="genE318 genE307"/>
	</vehicle>
	<vehicle depart="148.65" departLane="free" departSpeed="max" id="13512" type="HV">
		<route edges="genE318 genE307"/>
	</vehicle>
	<vehicle depart="152.25" departLane="free" departSpeed="max" id="13926" type="HV">
		<route edges="genE296 genE317"/>
	</vehicle>
	<vehicle depart="159.21" departLane="free" departSpeed="max" id="14225" type="HV">
		<route edges="genE316 genE317"/>
	</vehicle>
	<vehicle depart="163.98" departLane="free" departSpeed="max" id="14009" type="HV">
		<route edges="genE316 genE297"/>
	</vehicle>
	<vehicle depart="165.43" departLane="free" departSpeed="max" id="13582" type="HV">
		<route edges="genE296 genE307"/>
	</vehicle>
	<vehicle depart="165.88" departLane="free" departSpeed="max" id="13783" type="HV">
		<route edges="genE296 genE317"/>
	</vehicle>
	<vehicle depart="171.01" departLane="free" departSpeed="max" id="14075" type="CV">
		<route edges="genE316 genE297"/>
	</vehicle>
	<vehicle depart="171.95" departLane="free" departSpeed="max" id="13380" type="HV">
		<route edges="genE318 genE307"/>
	</vehicle>
	<vehicle depart="172.2" departLane="free" departSpeed="max" id="13467" type="CV">
		<route edges="genE318 genE307"/>
	</vehicle>
	<vehicle depart="174.92" departLane="free" departSpeed="max" id="13382" type="HV">
		<route edges="genE318 genE307"/>
	</vehicle>
	<vehicle depart="176.85" departLane="free" departSpeed="max" id="14028" type="HV">
		<route edges="genE316 genE297"/>
	</vehicle>
	<vehicle depart="178.14" departLane="free" departSpeed="max" id="13414" type="HV">
		<route edges="genE318 genE307"/>
	</vehicle>
	<vehicle depart="178.93" departLane="free" departSpeed="max" id="13883" type="CV">
		<route edges="genE296 genE317"/>
	</vehicle>
	<vehicle depart="187.49" departLane="free" departSpeed="max" id="13570" type="HV">
		<route edges="genE296 genE307"/>
	</vehicle>
	<vehicle depart="189.82" departLane="free" departSpeed="max" id="14305" type="HV">
		<route edges="genE316 genE317"/>
	</vehicle>
	<vehicle depart="191.88" departLane="free" departSpeed="max" id="13365" type="HV">
		<route edges="genE318 genE297"/>
	</vehicle>
	<vehicle depart="195.38" departLane="free" departSpeed="max" id="13647" type="CV">
		<route edges="genE296 genE307"/>
	</vehicle>
	<vehicle depart="196.7" departLane="free" departSpeed="max" id="13558" type="HV">
		<route edges="genE296 genE307"/>
	</vehicle>
	<vehicle depart="200.64" departLane="free" departSpeed="max" id="14137" type="CV">
		<route edges="genE316 genE297"/>
	</vehicle>
	<vehicle depart="207.25" departLane="free" departSpeed="max" id="13657" type="CV">
		<route edges="genE296 genE307"/>
	</vehicle>
	<vehicle depart="212.28" departLane="free" departSpeed="max" id="14268" type="HV">
		<route edges="genE316 genE317"/>
	</vehicle>
	<vehicle depart="212.66" departLane="free" departSpeed="max" id="13993" type="CV">
		<route edges="genE316 genE297"/>
	</vehicle>
	<vehicle depart="213.89" departLane="free" departSpeed="max" id="13338" type="CV">
		<route edges="genE318 genE297"/>
	</vehicle>
	<vehicle depart="215.74" departLane="free" departSpeed="max" id="13789" type="HV">
		<route edges="genE296 genE317"/>
	</vehicle>
	<vehicle depart="220.68" departLane="free" departSpeed="max" id="13750" type="HV">
		<route edges="genE296 genE317"/>
	</vehicle>
	<vehicle depart="221.25" departLane="free" departSpeed="max" id="13598" type="HV">
		<route edges="genE296 genE307"/>
	</vehicle>
	<vehicle depart="224.55" departLane="free" departSpeed="max" id="14283" type="HV">
		<route edges="genE316 genE317"/>
	</vehicle>
	<vehicle depart="231.78" departLane="free" departSpeed="max" id="13799" type="HV">
		<route edges="genE296 genE317"/>
	</vehicle>
	<vehicle depart="232.54" departLane="free" departSpeed="max" id="13557" type="HV">
		<route edges="genE296 genE307"/>
	</vehicle>
	<vehicle depart="233.19" departLane="free" departSpeed="max" id="13700" type="HV">
		<route edges="genE296 genE307"/>
	</vehicle>
	<vehicle depart="240.59" departLane="free" departSpeed="max" id="13917" type="HV">
		<route edges="genE296 genE317"/>
	</vehicle>
	<vehicle depart="241.5" departLane="free" departSpeed="max" id="13616" type="HV">
		<route edges="genE296 genE307"/>
	</vehicle>
	<vehicle depart="242.31" departLane="free" departSpeed="max" id="13383" type="CV">
		<route edges="genE318 genE307"/>
	</vehicle>
	<vehicle depart="243.92" departLane="free" departSpeed="max" id="13968" type="HV">
		<route edges="genE316 genE297"/>
	</vehicle>
	<vehicle depart="244.34" departLane="free" departSpeed="max" id="13531" type="HV">
		<route edges="genE296 genE307"/>
	</vehicle>
	<vehicle depart="245.77" departLane="free" departSpeed="max" id="13910" type="CV">
		<route edges="genE296 genE317"/>
	</vehicle>
	<vehicle depart="246.11" departLane="free" departSpeed="max" id="13566" type="HV">
		<route edges="genE296 genE307"/>
	</vehicle>
	<vehicle depart="253.63" departLane="free" departSpeed="max" id="13985" type="CV">
		<route edges="genE316 genE297"/>
	</vehicle>
	<vehicle depart="259.97" departLane="free" departSpeed="max" id="14230" type="CV">
		<route edges="genE316 genE317"/>
	</vehicle>
	<vehicle depart="260.28" departLane="free" departSpeed="max" id="13346" type="CV">
		<route edges="genE318 genE297"/>
	</vehicle>
	<vehicle depart="260.75" departLane="free" departSpeed="max" id="13499" type="HV">
		<route edges="genE318 genE307"/>
	</vehicle>
	<vehicle depart="266.07" departLane="free" departSpeed="max" id="13694" type="HV">
		<route edges="genE296 genE307"/>
	</vehicle>
	<vehicle depart="273.5" departLane="free" departSpeed="max" id="14169" type="HV">
		<route edges="genE316 genE317"/>
	</vehicle>
	<vehicle depart="275.78" departLane="free" departSpeed="max" id="13736" type="CV">
		<route edges="genE296 genE317"/>
	</vehicle>
	<vehicle depart="276.55" departLane="free" departSpeed="max" id="14141" type="CV">
		<route edges="genE316 genE297"/>
	</vehicle>
	<vehicle depart="281.75" departLane="free" departSpeed="max" id="13837" type="HV">
		<route edges="genE296 genE317"/>
	</vehicle>
	<vehicle depart="282.68" departLane="free" departSpeed="max" id="13422" type="HV">
		<route edges="genE318 genE307"/>
	</vehicle>
	<vehicle depart="284.11" departLane="free" departSpeed="max" id="13971" type="HV">
		<route edges="genE316 genE297"/>
	</vehicle>
	<vehicle depart="292.57" departLane="free" departSpeed="max" id="14160" type="HV">
		<route edges="genE316 genE317"/>
	</vehicle>
	<vehicle depart="298.46" departLane="free" departSpeed="max" id="13545" type="HV">
		<route edges="genE296 genE307"/>
	</vehicle>
	<vehicle depart="298.57" departLane="free" departSpeed="max" id="13509" type="HV">
		<route edges="genE318 genE307"/>
	</vehicle>
	<vehicle depart="311.39" departLane="free" departSpeed="max" id="13726" type="HV">
		<route edges="genE296 genE317"/>
	</vehicle>
	<vehicle depart="313.2" departLane="free" departSpeed="max" id="13314" type="HV">
		<route edges="genE318 genE297"/>
	</vehicle>
	<vehicle depart="313.48" departLane="free" departSpeed="max" id="13528" type="HV">
		<route edges="genE296 genE307"/>
	</vehicle>
	<vehicle depart="315.49" departLane="free" departSpeed="max" id="13370" type="HV">
		<route edges="genE318 genE297"/>
	</vehicle>
	<vehicle depart="317.03" departLane="free" departSpeed="max" id="13913" type="HV">
		<route edges="genE296 genE317"/>
	</vehicle>
	<vehicle depart="319.19" departLane="free" departSpeed="max" id="13728" type="CV">
		<route edges="genE296 genE317"/>
	</vehicle>
	<vehicle depart="321.98" departLane="free" departSpeed="max" id="13909" type="HV">
		<route edges="genE296 genE317"/>
	</vehicle>
	<vehicle depart="324.08" departLane="free" departSpeed="max" id="13435" type="HV">
		<route edges="genE318 genE307"/>
	</vehicle>
	<vehicle depart="324.96" departLane="free" departSpeed="max" id="13963" type="HV">
		<route edges="genE316 genE297"/>
	</vehicle>
	<vehicle depart="329.98" departLane="free" departSpeed="max" id="14297" type="HV">
		<route edges="genE316 genE317"/>
	</vehicle>
	<vehicle depart="336.59" departLane="free" departSpeed="max" id="14002" type="HV">
		<route edges="genE316 genE297"/>
	</vehicle>
	<vehicle depart="337.43" departLane="free" departSpeed="max" id="13650" type="HV">
		<route edges="genE296 genE307"/>
	</vehicle>
	<vehicle depart="339.75" departLane="free" departSpeed="max" id="14280" type="HV">
		<route edges="genE316 genE317"/>
	</vehicle>
	<vehicle depart="346.94" departLane="free" departSpeed="max" id="13358" type="HV">
		<route edges="genE318 genE297"/>
	</vehicle>
	<vehicle depart="348.74" departLane="free" departSpeed="max" id="13887" type="HV">
		<route edges="genE296 genE317"/>
	</vehicle>
	<vehicle depart="352.69" departLane="free" departSpeed="max" id="13345" type="HV">
		<route edges="genE318 genE297"/>
	</vehicle>
	<vehicle depart="354.51" departLane="free" departSpeed="max" id="13981" type="HV">
		<route edges="genE316 genE297"/>
	</vehicle>
	<vehicle depart="355.4" departLane="free" departSpeed="max" id="13392" type="HV">
		<route edges="genE318 genE307"/>
	</vehicle>
	<vehicle depart="356.37" departLane="free" departSpeed="max" id="13831" type="HV">
		<route edges="genE296 genE317"/>
	</vehicle>
	<vehicle depart="366.86" departLane="free" departSpeed="max" id="13330" type="CV">
		<route edges="genE318 genE297"/>
	</vehicle>
	<vehicle depart="368.59" departLane="free" departSpeed="max" id="13569" type="HV">
		<route edges="genE296 genE307"/>
	</vehicle>
	<vehicle depart="368.82" departLane="free" departSpeed="max" id="13668" type="CV">
		<route edges="genE296 genE307"/>
	</vehicle>
	<vehicle depart="373.67" departLane="free" departSpeed="max" id="13430" type="HV">
		<route edges="genE318 genE307"/>
	</vehicle>
	<vehicle depart="376.1" departLane="free" departSpeed="max" id="14014" type="CV">
		<route edges="genE316 genE297"/>
	</vehicle>
	<vehicle depart="382.53" departLane="free" departSpeed="max" id="14260" type="HV">
		<route edges="genE316 genE317"/>
	</vehicle>
	<vehicle depart="385.88" departLane="free" departSpeed="max" id="14193" type="CV">
		<route edges="genE316 genE317"/>
	</vehicle>
	<vehicle depart="396.04" departLane="free" departSpeed="max" id="13448" type="CV">
		<route edges="genE318 genE307"/>
	</vehicle>
	<vehicle depart="398.37" departLane="free" departSpeed="max" id="14265" type="HV">
		<route edges="genE316 genE317"/>
	</vehicle>
	<vehicle depart="400.0" departLane="free" departSpeed="max" id="13374" type="CV">
		<route edges="genE318 genE297"/>
	</vehicle>
	<vehicle depart="401.18" departLane="free" departSpeed="max" id="13654" type="HV">
		<route edges="genE296 genE307"/>
	</vehicle>
	<vehicle depart="401.27" departLane="free" departSpeed="max" id="13323" type="CV">
		<route edges="genE318 genE297"/>
	</vehicle>
	<vehicle depart="407.65" departLane="free" departSpeed="max" id="14161" type="HV">
		<route edges="genE316 genE317"/>
	</vehicle>
	<vehicle depart="408.19" departLane="free" departSpeed="max" id="13327" type="HV">
		<route edges="genE318 genE297"/>
	</vehicle>
	<vehicle depart="408.31" departLane="free" departSpeed="max" id="14167" type="HV">
		<route edges="genE316 genE317"/>
	</vehicle>
	<vehicle depart="409.67" departLane="free" departSpeed="max" id="13914" type="HV">
		<route edges="genE296 genE317"/>
	</vehicle>
	<vehicle depart="409.78" departLane="free" departSpeed="max" id="14189" type="HV">
		<route edges="genE316 genE317"/>
	</vehicle>
	<vehicle depart="410.46" departLane="free" departSpeed="max" id="14278" type="HV">
		<route edges="genE316 genE317"/>
	</vehicle>
	<vehicle depart="411.09" departLane="free" departSpeed="max" id="13804" type="HV">
		<route edges="genE296 genE317"/>
	</vehicle>
	<vehicle depart="416.7" departLane="free" departSpeed="max" id="13707" type="CV">
		<route edges="genE296 genE307"/>
	</vehicle>
	<vehicle depart="424.07" departLane="free" departSpeed="max" id="13776" type="CV">
		<route edges="genE296 genE317"/>
	</vehicle>
	<vehicle depart="431.16" departLane="free" departSpeed="max" id="13500" type="HV">
		<route edges="genE318 genE307"/>
	</vehicle>
	<vehicle depart="435.24" departLane="free" departSpeed="max" id="13836" type="HV">
		<route edges="genE296 genE317"/>
	</vehicle>
	<vehicle depart="435.25" departLane="free" departSpeed="max" id="13802" type="HV">
		<route edges="genE296 genE317"/>
	</vehicle>
	<vehicle depart="443.43" departLane="free" departSpeed="max" id="13376" type="HV">
		<route edges="genE318 genE297"/>
	</vehicle>
	<vehicle depart="444.69" departLane="free" departSpeed="max" id="14021" type="HV">
		<route edges="genE316 genE297"/>
	</vehicle>
	<vehicle depart="445.43" departLane="free" departSpeed="max" id="13759" type="HV">
		<route edges="genE296 genE317"/>
	</vehicle>
	<vehicle depart="445.54" departLane="free" departSpeed="max" id="13896" type="CV">
		<route edges="genE296 genE317"/>
	</vehicle>
	<vehicle depart="447.29" departLane="free" departSpeed="max" id="14007" type="HV">
		<route edges="genE316 genE297"/>
	</vehicle>
	<vehicle depart="454.06" departLane="free" departSpeed="max" id="14269" type="HV">
		<route edges="genE316 genE317"/>
	</vehicle>
	<vehicle depart="455.07" departLane="free" departSpeed="max" id="13688" type="HV">
		<route edges="genE296 genE307"/>
	</vehicle>
	<vehicle depart="461.24" departLane="free" departSpeed="max" id="13685" type="HV">
		<route edges="genE296 genE307"/>
	</vehicle>
	<vehicle depart="468.07" departLane="free" departSpeed="max" id="13778" type="HV">
		<route edges="genE296 genE317"/>
	</vehicle>
	<vehicle depart="477.37" departLane="free" departSpeed="max" id="14246" type="HV">
		<route edges="genE316 genE317"/>
	</vehicle>
	<vehicle depart="478.5" departLane="free" departSpeed="max" id="14148" type="HV">
		<route edges="genE316 genE297"/>
	</vehicle>
	<vehicle depart="484.5" departLane="free" departSpeed="max" id="13466" type="HV">
		<route edges="genE318 genE307"/>
	</vehicle>
	<vehicle depart="487.13" departLane="free" departSpeed="max" id="13356" type="HV">
		<route edges="genE318 genE297"/>
	</vehicle>
	<vehicle depart="488.03" departLane="free" departSpeed="max" id="14165" type="HV">
		<route edges="genE316 genE317"/>
	</vehicle>
	<vehicle depart="488.76" departLane="free" departSpeed="max" id="13555" type="CV">
		<route edges="genE296 genE307"/>
	</vehicle>
	<vehicle depart="490.55" departLane="free" departSpeed="max" id="14179" type="CV">
		<route edges="genE316 genE317"/>
	</vehicle>
	<vehicle depart="494.12" departLane="free" departSpeed="max" id="13932" type="HV">
		<route edges="genE296 genE317"/>
	</vehicle>
	<vehicle depart="494.46" departLane="free" departSpeed="max" id="14086" type="HV">
		<route edges="genE316 genE297"/>
	</vehicle>
	<vehicle depart="501.96" departLane="free" departSpeed="max" id="13638" type="HV">
		<route edges="genE296 genE307"/>
	</vehicle>
	<vehicle depart="503.3" departLane="free" departSpeed="max" id="13885" type="CV">
		<route edges="genE296 genE317"/>
	</vehicle>
	<vehicle depart="503.7" departLane="free" departSpeed="max" id="13490" type="HV">
		<route edges="genE318 genE307"/>
	</vehicle>
	<vehicle depart="511.3" departLane="free" departSpeed="max" id="13636" type="HV">
		<route edges="genE296 genE307"/>
	</vehicle>
	<vehicle depart="518.39" departLane="free" departSpeed="max" id="13797" type="HV">
		<route edges="genE296 genE317"/>
	</vehicle>
	<vehicle depart="521.03" departLane="free" departSpeed="max" id="14307" type="HV">
		<route edges="genE316 genE317"/>
	</vehicle>
	<vehicle depart="527.88" departLane="free" departSpeed="max" id="13816" type="HV">
		<route edges="genE296 genE317"/>
	</vehicle>
	<vehicle depart="529.12" departLane="free" departSpeed="max" id="14311" type="HV">
		<route edges="genE316 genE317"/>
	</vehicle>
	<vehicle depart="531.46" departLane="free" departSpeed="max" id="13355" type="HV">
		<route edges="genE318 genE297"/>
	</vehicle>
	<vehicle depart="537.28" departLane="free" departSpeed="max" id="14091" type="HV">
		<route edges="genE316 genE297"/>
	</vehicle>
	<vehicle depart="541.18" departLane="free" departSpeed="max" id="13656" type="HV">
		<route edges="genE296 genE307"/>
	</vehicle>
	<vehicle depart="541.69" departLane="free" departSpeed="max" id="13894" type="CV">
		<route edges="genE296 genE317"/>
	</vehicle>
	<vehicle depart="544.89" departLane="free" departSpeed="max" id="13879" type="HV">
		<route edges="genE296 genE317"/>
	</vehicle>
	<vehicle depart="546.33" departLane="free" departSpeed="max" id="13907" type="HV">
		<route edges="genE296 genE317"/>
	</vehicle>
	<vehicle depart="547.88" departLane="free" departSpeed="max" id="13823" type="CV">
		<route edges="genE296 genE317"/>
	</vehicle>
	<vehicle depart="549.16" departLane="free" departSpeed="max" id="14123" type="CV">
		<route edges="genE316 genE297"/>
	</vehicle>
	<vehicle depart="561.81" departLane="free" departSpeed="max" id="13838" type="HV">
		<route edges="genE296 genE317"/>
	</vehicle>
	<vehicle depart="568.85" departLane="free" departSpeed="max" id="13360" type="HV">
		<route edges="genE318 genE297"/>
	</vehicle>
	<vehicle depart="573.51" departLane="free" departSpeed="max" id="13550" type="HV">
		<route edges="genE296 genE307"/>
	</vehicle>
	<vehicle depart="577.06" departLane="free" departSpeed="max" id="14272" type="HV">
		<route edges="genE316 genE317"/>
	</vehicle>
	<vehicle depart="586.22" departLane="free" departSpeed="max" id="13577" type="HV">
		<route edges="genE296 genE307"/>
	</vehicle>
	<vehicle depart="590.82" departLane="free" departSpeed="max" id="13675" type="HV">
		<route edges="genE296 genE307"/>
	</vehicle>
	<vehicle depart="594.77" departLane="free" departSpeed="max" id="13976" type="HV">
		<route edges="genE316 genE297"/>
	</vehicle>
	<vehicle depart="603.42" departLane="free" departSpeed="max" id="14085" type="HV">
		<route edges="genE316 genE297"/>
	</vehicle>
	<vehicle depart="604.18" departLane="free" departSpeed="max" id="14071" type="HV">
		<route edges="genE316 genE297"/>
	</vehicle>
	<vehicle depart="606.01" departLane="free" departSpeed="max" id="14098" type="HV">
		<route edges="genE316 genE297"/>
	</vehicle>
	<vehicle depart="606.36" departLane="free" departSpeed="max" id="13507" type="HV">
		<route edges="genE318 genE307"/>
	</vehicle>
	<vehicle depart="606.69" departLane="free" departSpeed="max" id="13988" type="HV">
		<route edges="genE316 genE297"/>
	</vehicle>
	<vehicle depart="609.25" departLane="free" departSpeed="max" id="13591" type="HV">
		<route edges="genE296 genE307"/>
	</vehicle>
	<vehicle depart="611.25" departLane="free" departSpeed="max" id="13740" type="HV">
		<route edges="genE296 genE317"/>
	</vehicle>
	<vehicle depart="612.53" departLane="free" departSpeed="max" id="13878" type="HV">
		<route edges="genE296 genE317"/>
	</vehicle>
	<vehicle depart="612.56" departLane="free" departSpeed="max" id="14226" type="CV">
		<route edges="genE316 genE317"/>
	</vehicle>
	<vehicle depart="617.54" departLane="free" departSpeed="max" id="13515" type="HV">
		<route edges="genE318 genE307"/>
	</vehicle>
	<vehicle depart="617.71" departLane="free" departSpeed="max" id="14237" type="HV">
		<route edges="genE316 genE317"/>
	</vehicle>
	<vehicle depart="622.48" departLane="free" departSpeed="max" id="14055" type="HV">
		<route edges="genE316 genE297"/>
	</vehicle>
	<vehicle depart="623.92" departLane="free" departSpeed="max" id="14058" type="CV">
		<route edges="genE316 genE297"/>
	</vehicle>
	<vehicle depart="624.53" departLane="free" departSpeed="max" id="13576" type="HV">
		<route edges="genE296 genE307"/>
	</vehicle>
	<vehicle depart="629.74" departLane="free" departSpeed="max" id="13491" type="CV">
		<route edges="genE318 genE307"/>
	</vehicle>
	<vehicle depart="633.53" departLane="free" departSpeed="max" id="13757" type="HV">
		<route edges="genE296 genE317"/>
	</vehicle>
	<vehicle depart="636.63" departLane="free" departSpeed="max" id="13639" type="CV">
		<route edges="genE296 genE307"/>
	</vehicle>
	<vehicle depart="643.58" departLane="free" departSpeed="max" id="13877" type="HV">
		<route edges="genE296 genE317"/>
	</vehicle>
	<vehicle depart="650.97" departLane="free" departSpeed="max" id="14064" type="HV">
		<route edges="genE316 genE297"/>
	</vehicle>
	<vehicle depart="656.16" departLane="free" departSpeed="max" id="13529" type="HV">
		<route edges="genE296 genE307"/>
	</vehicle>
	<vehicle depart="656.41" departLane="free" departSpeed="max" id="14019" type="CV">
		<route edges="genE316 genE297"/>
	</vehicle>
	<vehicle depart="659.59" departLane="free" departSpeed="max" id="13487" type="HV">
		<route edges="genE318 genE307"/>
	</vehicle>
	<vehicle depart="662.23" departLane="free" departSpeed="max" id="13787" type="HV">
		<route edges="genE296 genE317"/>
	</vehicle>
	<vehicle depart="670.02" departLane="free" departSpeed="max" id="14132" type="HV">
		<route edges="genE316 genE297"/>
	</vehicle>
	<vehicle depart="679.69" departLane="free" departSpeed="max" id="13999" type="CV">
		<route edges="genE316 genE297"/>
	</vehicle>
	<vehicle depart="683.01" departLane="free" departSpeed="max" id="13493" type="HV">
		<route edges="genE318 genE307"/>
	</vehicle>
	<vehicle depart="684.84" departLane="free" departSpeed="max" id="13463" type="HV">
		<route edges="genE318 genE307"/>
	</vehicle>
	<vehicle depart="688.32" departLane="free" departSpeed="max" id="14205" type="HV">
		<route edges="genE316 genE317"/>
	</vehicle>
	<vehicle depart="688.94" departLane="free" departSpeed="max" id="14020" type="HV">
		<route edges="genE316 genE297"/>
	</vehicle>
	<vehicle depart="697.59" departLane="free" departSpeed="max" id="13967" type="HV">
		<route edges="genE316 genE297"/>
	</vehicle>
	<vehicle depart="700.53" departLane="free" departSpeed="max" id="13564" type="HV">
		<route edges="genE296 genE307"/>
	</vehicle>
	<vehicle depart="702.02" departLane="free" departSpeed="max" id="13690" type="HV">
		<route edges="genE296 genE307"/>
	</vehicle>
	<vehicle depart="705.42" departLane="free" departSpeed="max" id="13313" type="HV">
		<route edges="genE318 genE297"/>
	</vehicle>
	<vehicle depart="705.73" departLane="free" departSpeed="max" id="14103" type="HV">
		<route edges="genE316 genE297"/>
	</vehicle>
	<vehicle depart="706.74" departLane="free" departSpeed="max" id="13443" type="HV">
		<route edges="genE318 genE307"/>
	</vehicle>
	<vehicle depart="709.48" departLane="free" departSpeed="max" id="14180" type="HV">
		<route edges="genE316 genE317"/>
	</vehicle>
	<vehicle depart="710.01" departLane="free" departSpeed="max" id="14250" type="HV">
		<route edges="genE316 genE317"/>
	</vehicle>
	<vehicle depart="710.08" departLane="free" departSpeed="max" id="14152" type="HV">
		<route edges="genE316 genE317"/>
	</vehicle>
	<vehicle depart="714.06" departLane="free" departSpeed="max" id="13522" type="HV">
		<route edges="genE318 genE307"/>
	</vehicle>
	<vehicle depart="715.12" departLane="free" departSpeed="max" id="13464" type="HV">
		<route edges="genE318 genE307"/>
	</vehicle>
	<vehicle depart="719.78" departLane="free" departSpeed="max" id="13424" type="HV">
		<route edges="genE318 genE307"/>
	</vehicle>
	<vehicle depart="728.56" departLane="free" departSpeed="max" id="14202" type="HV">
		<route edges="genE316 genE317"/>
	</vehicle>
	<vehicle depart="735.44" departLane="free" departSpeed="max" id="13513" type="HV">
		<route edges="genE318 genE307"/>
	</vehicle>
	<vehicle depart="736.92" departLane="free" departSpeed="max" id="13302" type="HV">
		<route edges="genE318 genE297"/>
	</vehicle>
	<vehicle depart="737.42" departLane="free" departSpeed="max" id="14251" type="CV">
		<route edges="genE316 genE317"/>
	</vehicle>
	<vehicle depart="740.04" departLane="free" departSpeed="max" id="13473" type="HV">
		<route edges="genE318 genE307"/>
	</vehicle>
	<vehicle depart="751.29" departLane="free" departSpeed="max" id="13397" type="HV">
		<route edges="genE318 genE307"/>
	</vehicle>
	<vehicle depart="751.37" departLane="free" departSpeed="max" id="13344" type="HV">
		<route edges="genE318 genE297"/>
	</vehicle>
	<vehicle depart="752.78" departLane="free" departSpeed="max" id="13409" type="HV">
		<route edges="genE318 genE307"/>
	</vehicle>
	<vehicle depart="756.42" departLane="free" departSpeed="max" id="13351" type="CV">
		<route edges="genE318 genE297"/>
	</vehicle>
	<vehicle depart="757.21" departLane="free" departSpeed="max" id="13705" type="HV">
		<route edges="genE296 genE307"/>
	</vehicle>
	<vehicle depart="758.01" departLane="free" departSpeed="max" id="13972" type="HV">
		<route edges="genE316 genE297"/>
	</vehicle>
	<vehicle depart="760.62" departLane="free" departSpeed="max" id="13413" type="CV">
		<route edges="genE318 genE307"/>
	</vehicle>
	<vehicle depart="767.06" departLane="free" departSpeed="max" id="13349" type="HV">
		<route edges="genE318 genE297"/>
	</vehicle>
	<vehicle depart="776.55" departLane="free" departSpeed="max" id="14195" type="CV">
		<route edges="genE316 genE317"/>
	</vehicle>
	<vehicle depart="780.48" departLane="free" departSpeed="max" id="13600" type="HV">
		<route edges="genE296 genE307"/>
	</vehicle>
	<vehicle depart="781.96" departLane="free" departSpeed="max" id="14101" type="HV">
		<route edges="genE316 genE297"/>
	</vehicle>
	<vehicle depart="785.62" departLane="free" departSpeed="max" id="13411" type="CV">
		<route edges="genE318 genE307"/>
	</vehicle>
	<vehicle depart="787.41" departLane="free" departSpeed="max" id="14191" type="HV">
		<route edges="genE316 genE317"/>
	</vehicle>
	<vehicle depart="787.68" departLane="free" departSpeed="max" id="13919" type="HV">