<?xml version="1.0" ?>
<routes>
	<vType accel="0.8" decel="4.5" id="CV" length="5" maxSpeed="45" sigma="0.5"/>
	<vType accel="0.8" decel="4.5" id="HV" length="5" maxSpeed="40" sigma="0.5"/>
	<vehicle depart="1.77" departLane="free" departSpeed="max" id="14697" type="HV">
		<route edges="genE296 genE307"/>
	</vehicle>
	<vehicle depart="3.81" departLane="free" departSpeed="max" id="15220" type="HV">
		<route edges="genE316 genE297"/>
	</vehicle>
	<vehicle depart="4.4" departLane="free" departSpeed="max" id="15155" type="HV">
		<route edges="genE316 genE297"/>
	</vehicle>
	<vehicle depart="9.28" departLane="free" departSpeed="max" id="14857" type="HV">
		<route edges="genE296 genE317"/>
	</vehicle>
	<vehicle depart="14.03" departLane="free" departSpeed="max" id="15189" type="HV">
		<route edges="genE316 genE297"/>
	</vehicle>
	<vehicle depart="18.08" departLane="free" departSpeed="max" id="14406" type="HV">
		<route edges="genE318 genE297"/>
	</vehicle>
	<vehicle depart="22.79" departLane="free" departSpeed="max" id="14981" type="HV">
		<route edges="genE296 genE317"/>
	</vehicle>
	<vehicle depart="24.03" departLane="free" departSpeed="max" id="14359" type="HV">
		<route edges="genE318 genE297"/>
	</vehicle>
	<vehicle depart="28.87" departLane="free" departSpeed="max" id="15236" type="CV">
		<route edges="genE316 genE297"/>
	</vehicle>
	<vehicle depart="35.45" departLane="free" departSpeed="max" id="14858" type="HV">
		<route edges="genE296 genE317"/>
	</vehicle>
	<vehicle depart="41.58" departLane="free" departSpeed="max" id="14594" type="HV">
		<route edges="genE296 genE307"/>
	</vehicle>
	<vehicle depart="45.71" departLane="free" departSpeed="max" id="14639" type="CV">
		<route edges="genE296 genE307"/>
	</vehicle>
	<vehicle depart="48.7" departLane="free" departSpeed="max" id="14909" type="HV">
		<route edges="genE296 genE317"/>
	</vehicle>
	<vehicle depart="53.36" departLane="free" departSpeed="max" id="15328" type="HV">
		<route edges="genE316 genE317"/>
	</vehicle>
	<vehicle depart="63.33" departLane="free" departSpeed="max" id="15453" type="CV">
		<route edges="genE316 genE317"/>
	</vehicle>
	<vehicle depart="67.42" departLane="free" departSpeed="max" id="14853" type="HV">
		<route edges="genE296 genE317"/>
	</vehicle>
	<vehicle depart="74.79" departLane="free" departSpeed="max" id="14787" type="HV">
		<route edges="genE296 genE307"/>
	</vehicle>
	<vehicle depart="81.68" departLane="free" departSpeed="max" id="14581" type="HV">
		<route edges="genE318 genE307"/>
	</vehicle>
	<vehicle depart="82.75" departLane="free" departSpeed="max" id="14664" type="HV">
		<route edges="genE296 genE307"/>
	</vehicle>
	<vehicle depart="82.86" departLane="free" departSpeed="max" id="14608" type="HV">
		<route edges="genE296 genE307"/>
	</vehicle>
	<vehicle depart="91.55" departLane="free" departSpeed="max" id="14747" type="HV">
		<route edges="genE296 genE307"/>
	</vehicle>
	<vehicle depart="94.63" departLane="free" departSpeed="max" id="14566" type="HV">
		<route edges="genE318 genE307"/>
	</vehicle>
	<vehicle depart="94.78" departLane="free" departSpeed="max" id="14917" type="HV">
		<route edges="genE296 genE317"/>
	</vehicle>
	<vehicle depart="103.72" departLane="free" departSpeed="max" id="15424" type="CV">
		<route edges="genE316 genE317"/>
	</vehicle>
	<vehicle depart="109.55" departLane="free" departSpeed="max" id="15033" type="CV">
		<route edges="genE296 genE317"/>
	</vehicle>
	<vehicle depart="110.59" departLane="free" departSpeed="max" id="15403" type="CV">
		<route edges="genE316 genE317"/>
	</vehicle>
	<vehicle depart="111.12" departLane="free" departSpeed="max" id="14395" type="HV">
		<route edges="genE318 genE297"/>
	</vehicle>
	<vehicle depart="117.77" departLane="free" departSpeed="max" id="14906" type="HV">
		<route edges="genE296 genE317"/>
	</vehicle>
	<vehicle depart="130.16" departLane="free" departSpeed="max" id="14912" type="HV">
		<route edges="genE296 genE317"/>
	</vehicle>
	<vehicle depart="130.19" departLane="free" departSpeed="max" id="15407" type="HV">
		<route edges="genE316 genE317"/>
	</vehicle>
	<vehicle depart="134.54" departLane="free" departSpeed="max" id="14489" type="HV">
		<route edges="genE318 genE307"/>
	</vehicle>
	<vehicle depart="139.33" departLane="free" departSpeed="max" id="14373" type="CV">
		<route edges="genE318 genE297"/>
	</vehicle>
	<vehicle depart="142.25" departLane="free" departSpeed="max" id="15461" type="CV">
		<route edges="genE316 genE317"/>
	</vehicle>
	<vehicle depart="147.81" departLane="free" departSpeed="max" id="14377" type="HV">
		<route edges="genE318 genE297"/>
	</vehicle>
	<vehicle depart="150.76" departLane="free" departSpeed="max" id="14785" type="HV">
		<route edges="genE296 genE307"/>
	</vehicle>
	<vehicle depart="152.13" departLane="free" departSpeed="max" id="14350" type="CV">
		<route edges="genE318 genE297"/>
	</vehicle>
	<vehicle depart="153.46" departLane="free" departSpeed="max" id="14838" type="HV">
		<route edges="genE296 genE317"/>
	</vehicle>
	<vehicle depart="154.2" departLane="free" departSpeed="max" id="14660" type="HV">
		<route edges="genE296 genE307"/>
	</vehicle>
	<vehicle depart="159.8" departLane="free" departSpeed="max" id="14493" type="HV">
		<route edges="genE318 genE307"/>
	</vehicle>
	<vehicle depart="160.3" departLane="free" departSpeed="max" id="14803" type="HV">
		<route edges="genE296 genE307"/>
	</vehicle>
	<vehicle depart="160.99" departLane="free" departSpeed="max" id="14693" type="HV">
		<route edges="genE296 genE307"/>
	</vehicle>
	<vehicle depart="169.68" departLane="free" departSpeed="max" id="14887" type="CV">
		<route edges="genE296 genE317"/>
	</vehicle>
	<vehicle depart="172.19" departLane="free" departSpeed="max" id="14680" type="HV">
		<route edges="genE296 genE307"/>
	</vehicle>
	<vehicle depart="176.65" departLane="free" departSpeed="max" id="14484" type="HV">
		<route edges="genE318 genE307"/>
	</vehicle>
	<vehicle depart="176.98" departLane="free" departSpeed="max" id="14323" type="HV">
		<route edges="genE318 genE297"/>
	</vehicle>
	<vehicle depart="177.16" departLane="free" departSpeed="max" id="14861" type="HV">
		<route edges="genE296 genE317"/>
	</vehicle>
	<vehicle depart="177.76" departLane="free" departSpeed="max" id="14620" type="HV">
		<route edges="genE296 genE307"/>
	</vehicle>
	<vehicle depart="177.77" departLane="free" departSpeed="max" id="14856" type="CV">
		<route edges="genE296 genE317"/>
	</vehicle>
	<vehicle depart="179.38" departLane="free" departSpeed="max" id="14391" type="HV">
		<route edges="genE318 genE297"/>
	</vehicle>
	<vehicle depart="189.94" departLane="free" departSpeed="max" id="14763" type="HV">
		<route edges="genE296 genE307"/>
	</vehicle>
	<vehicle depart="191.64" departLane="free" departSpeed="max" id="15467" type="HV">
		<route edges="genE316 genE317"/>
	</vehicle>
	<vehicle depart="195.68" departLane="free" departSpeed="max" id="15202" type="HV">
		<route edges="genE316 genE297"/>
	</vehicle>
	<vehicle depart="199.81" departLane="free" departSpeed="max" id="14830" type="CV">
		<route edges="genE296 genE317"/>
	</vehicle>
	<vehicle depart="200.48" departLane="free" departSpeed="max" id="15320" type="HV">
		<route edges="genE316 genE317"/>
	</vehicle>
	<vehicle depart="200.64" departLane="free" departSpeed="max" id="15446" type="CV">
		<route edges="genE316 genE317"/>
	</vehicle>
	<vehicle depart="202.07" departLane="free" departSpeed="max" id="14685" type="HV">
		<route edges="genE296 genE307"/>
	</vehicle>
	<vehicle depart="206.57" departLane="free" departSpeed="max" id="15406" type="HV">
		<route edges="genE316 genE317"/>
	</vehicle>
	<vehicle depart="210.55" departLane="free" departSpeed="max" id="14333" type="HV">
		<route edges="genE318 genE297"/>
	</vehicle>
	<vehicle depart="216.59" departLane="free" departSpeed="max" id="14371" type="HV">
		<route edges="genE318 genE297"/>
	</vehicle>
	<vehicle depart="218.99" departLane="free" departSpeed="max" id="15227" type="HV">
		<route edges="genE316 genE297"/>
	</vehicle>
	<vehicle depart="222.01" departLane="free" departSpeed="max" id="14870" type="HV">
		<route edges="genE296 genE317"/>
	</vehicle>
	<vehicle depart="223.4" departLane="free" departSpeed="max" id="15434" type="HV">
		<route edges="genE316 genE317"/>
	</vehicle>
	<vehicle depart="228.11" departLane="free" departSpeed="max" id="14605" type="HV">
		<route edges="genE296 genE307"/>
	</vehicle>
	<vehicle depart="231.39" departLane="free" departSpeed="max" id="14657" type="HV">
		<route edges="genE296 genE307"/>
	</vehicle>
	<vehicle depart="240.43" departLane="free" departSpeed="max" id="15466" type="HV">
		<route edges="genE316 genE317"/>
	</vehicle>
	<vehicle depart="240.73" departLane="free" departSpeed="max" id="14702" type="HV">
		<route edges="genE296 genE307"/>
	</vehicle>
	<vehicle depart="247.42" departLane="free" departSpeed="max" id="15303" type="HV">
		<route edges="genE316 genE317"/>
	</vehicle>
	<vehicle depart="248.05" departLane="free" departSpeed="max" id="15014" type="HV">
		<route edges="genE296 genE317"/>
	</vehicle>
	<vehicle depart="253.92" departLane="free" departSpeed="max" id="14364" type="HV">
		<route edges="genE318 genE297"/>
	</vehicle>
	<vehicle depart="255.95" departLane="free" departSpeed="max" id="14559" type="HV">
		<route edges="genE318 genE307"/>
	</vehicle>
	<vehicle depart="258.51" departLane="free" departSpeed="max" id="14788" type="HV">
		<route edges="genE296 genE307"/>
	</vehicle>
	<vehicle depart="259.52" departLane="free" departSpeed="max" id="14969" type="HV">
		<route edges="genE296 genE317"/>
	</vehicle>
	<vehicle depart="264.24" departLane="free" departSpeed="max" id="14472" type="HV">
		<route edges="genE318 genE307"/>
	</vehicle>
	<vehicle depart="269.18" departLane="free" departSpeed="max" id="14957" type="HV">
		<route edges="genE296 genE317"/>
	</vehicle>
	<vehicle depart="272.27" departLane="free" departSpeed="max" id="15137" type="HV">
		<route edges="genE316 genE297"/>
	</vehicle>
	<vehicle depart="273.4" departLane="free" departSpeed="max" id="14766" type="HV">
		<route edges="genE296 genE307"/>
	</vehicle>
	<vehicle depart="274.49" departLane="free" departSpeed="max" id="14875" type="HV">
		<route edges="genE296 genE317"/>
	</vehicle>
	<vehicle depart="275.0" departLane="free" departSpeed="max" id="15016" type="HV">
		<route edges="genE296 genE317"/>
	</vehicle>
	<vehicle depart="276.13" departLane="free" departSpeed="max" id="14327" type="HV">
		<route edges="genE318 genE297"/>
	</vehicle>
	<vehicle depart="290.51" departLane="free" departSpeed="max" id="15346" type="HV">
		<route edges="genE316 genE317"/>
	</vehicle>
	<vehicle depart="290.53" departLane="free" departSpeed="max" id="14776" type="HV">
		<route edges="genE296 genE307"/>
	</vehicle>
	<vehicle depart="293.18" departLane="free" departSpeed="max" id="15269" type="HV">
		<route edges="genE316 genE297"/>
	</vehicle>
	<vehicle depart="294.31" departLane="free" departSpeed="max" id="14689" type="HV">
		<route edges="genE296 genE307"/>
	</vehicle>
	<vehicle depart="300.43" departLane="free" departSpeed="max" id="14807" type="CV">
		<route edges="genE296 genE307"/>
	</vehicle>
	<vehicle depart="305.79" departLane="free" departSpeed="max" id="14645" type="HV">
		<route edges="genE296 genE307"/>
	</vehicle>
	<vehicle depart="310.27" departLane="free" departSpeed="max" id="14381" type="HV">
		<route edges="genE318 genE297"/>
	</vehicle>
	<vehicle depart="312.3" departLane="free" departSpeed="max" id="14994" type="HV">
		<route edges="genE296 genE317"/>
	</vehicle>
	<vehicle depart="318.14" departLane="free" departSpeed="max" id="14805" type="HV">
		<route edges="genE296 genE307"/>
	</vehicle>
	<vehicle depart="321.52" departLane="free" departSpeed="max" id="14985" type="CV">
		<route edges="genE296 genE317"/>
	</vehicle>
	<vehicle depart="322.76" departLane="free" departSpeed="max" id="14938" type="HV">
		<route edges="genE296 genE317"/>
	</vehicle>
	<vehicle depart="323.01" departLane="free" departSpeed="max" id="14980" type="CV">
		<route edges="genE296 genE317"/>
	</vehicle>
	<vehicle depart="323.87" departLane="free" departSpeed="max" id="15162" type="HV">
		<route edges="genE316 genE297"/>
	</vehicle>
	<vehicle depart="325.28" departLane="free" departSpeed="max" id="14325" type="CV">
		<route edges="genE318 genE297"/>
	</vehicle>
	<vehicle depart="332.0" departLane="free" departSpeed="max" id="15379" type="HV">
		<route edges="genE316 genE317"/>
	</vehicle>
	<vehicle depart="332.8" departLane="free" departSpeed="max" id="15111" type="HV">
		<route edges="genE316 genE297"/>
	</vehicle>
	<vehicle depart="332.88" departLane="free" departSpeed="max" id="14820" type="HV">
		<route edges="genE296 genE317"/>
	</vehicle>
	<vehicle depart="334.7" departLane="free" departSpeed="max" id="15290" type="HV">
		<route edges="genE316 genE297"/>
	</vehicle>
	<vehicle depart="339.35" departLane="free" departSpeed="max" id="14682" type="HV">
		<route edges="genE296 genE307"/>
	</vehicle>
	<vehicle depart="344.79" departLane="free" departSpeed="max" id="15027" type="HV">
		<route edges="genE296 genE317"/>
	</vehicle>
	<vehicle depart="351.64" departLane="free" departSpeed="max" id="15076" type="HV">
		<route edges="genE316 genE297"/>
	</vehicle>
	<vehicle depart="354.58" departLane="free" departSpeed="max" id="15262" type="HV">
		<route edges="genE316 genE297"/>
	</vehicle>
	<vehicle depart="355.7" departLane="free" departSpeed="max" id="14953" type="HV">
		<route edges="genE296 genE317"/>
	</vehicle>
	<vehicle depart="358.74" departLane="free" departSpeed="max" id="14570" type="HV">
		<route edges="genE318 genE307"/>
	</vehicle>
	<vehicle depart="363.46" departLane="free" departSpeed="max" id="15313" type="HV">
		<route edges="genE316 genE317"/>
	</vehicle>
	<vehicle depart="367.41" departLane="free" departSpeed="max" id="14791" type="HV">
		<route edges="genE296 genE307"/>
	</vehicle>
	<vehicle depart="368.34" departLane="free" departSpeed="max" id="15314" type="HV">
		<route edges="genE316 genE317"/>
	</vehicle>
	<vehicle depart="369.57" departLane="free" departSpeed="max" id="14690" type="HV">
		<route edges="genE296 genE307"/>
	</vehicle>
	<vehicle depart="371.94" departLane="free" departSpeed="max" id="14942" type="HV">
		<route edges="genE296 genE317"/>
	</vehicle>
	<vehicle depart="374.55" departLane="free" departSpeed="max" id="14464" type="HV">
		<route edges="genE318 genE307"/>
	</vehicle>
	<vehicle depart="380.94" departLane="free" departSpeed="max" id="14488" type="HV">
		<route edges="genE318 genE307"/>
	</vehicle>
	<vehicle depart="388.87" departLane="free" departSpeed="max" id="15286" type="HV">
		<route edges="genE316 genE297"/>
	</vehicle>
	<vehicle depart="393.04" departLane="free" departSpeed="max" id="14779" type="HV">
		<route edges="genE296 genE307"/>
	</vehicle>
	<vehicle depart="395.04" departLane="free" departSpeed="max" id="15124" type="HV">
		<route edges="genE316 genE297"/>
	</vehicle>
	<vehicle depart="400.47" departLane="free" departSpeed="max" id="14719" type="HV">
		<route edges="genE296 genE307"/>
	</vehicle>
	<vehicle depart="402.91" departLane="free" departSpeed="max" id="15000" type="HV">
		<route edges="genE296 genE317"/>
	</vehicle>
	<vehicle depart="404.82" departLane="free" departSpeed="max" id="15230" type="CV">
		<route edges="genE316 genE297"/>
	</vehicle>
	<vehicle depart="407.87" departLane="free" departSpeed="max" id="15246" type="CV">
		<route edges="genE316 genE297"/>
	</vehicle>
	<vehicle depart="410.36" departLane="free" departSpeed="max" id="15100" type="HV">
		<route edges="genE316 genE297"/>
	</vehicle>
	<vehicle depart="411.56" departLane="free" departSpeed="max" id="14751" type="HV">
		<route edges="genE296 genE307"/>
	</vehicle>
	<vehicle depart="411.74" departLane="free" departSpeed="max" id="14755" type="HV">
		<route edges="genE296 genE307"/>
	</vehicle>
	<vehicle depart="415.25" departLane="free" departSpeed="max" id="15203" type="HV">
		<route edges="genE316 genE297"/>
	</vehicle>
	<vehicle depart="417.99" departLane="free" departSpeed="max" id="15316" type="CV">
		<route edges="genE316 genE317"/>
	</vehicle>
	<vehicle depart="424.14" departLane="free" departSpeed="max" id="14841" type="HV">
		<route edges="genE296 genE317"/>
	</vehicle>
	<vehicle depart="424.4" departLane="free" departSpeed="max" id="14547" type="HV">
		<route edges="genE318 genE307"/>
	</vehicle>
	<vehicle depart="431.02" departLane="free" departSpeed="max" id="15166" type="HV">
		<route edges="genE316 genE297"/>
	</vehicle>
	<vehicle depart="431.92" departLane="free" departSpeed="max" id="15448" type="CV">
		<route edges="genE316 genE317"/>
	</vehicle>
	<vehicle depart="441.05" departLane="free" departSpeed="max" id="14354" type="HV">
		<route edges="genE318 genE297"/>
	</vehicle>
	<vehicle depart="441.99" departLane="free" departSpeed="max" id="15352" type="HV">
		<route edges="genE316 genE317"/>
	</vehicle>
	<vehicle depart="446.59" departLane="free" departSpeed="max" id="14542" type="CV">
		<route edges="genE318 genE307"/>
	</vehicle>
	<vehicle depart="446.81" departLane="free" departSpeed="max" id="14648" type="HV">
		<route edges="genE296 genE307"/>
	</vehicle>
	<vehicle depart="450.68" departLane="free" departSpeed="max" id="14888" type="CV">
		<route edges="genE296 genE317"/>
	</vehicle>
	<vehicle depart="450.78" departLane="free" departSpeed="max" id="14516" type="CV">
		<route edges="genE318 genE307"/>
	</vehicle>
	<vehicle depart="450.99" departLane="free" departSpeed="max" id="14744" type="HV">
		<route edges="genE296 genE307"/>
	</vehicle>
	<vehicle depart="461.79" departLane="free" departSpeed="max" id="14568" type="HV">
		<route edges="genE318 genE307"/>
	</vehicle>
	<vehicle depart="468.26" departLane="free" departSpeed="max" id="15421" type="HV">
		<route edges="genE316 genE317"/>
	</vehicle>
	<vehicle depart="474.97" departLane="free" departSpeed="max" id="15072" type="HV">
		<route edges="genE316 genE297"/>
	</vehicle>
	<vehicle depart="476.38" departLane="free" departSpeed="max" id="14761" type="HV">
		<route edges="genE296 genE307"/>
	</vehicle>
	<vehicle depart="476.97" departLane="free" departSpeed="max" id="15112" type="HV">
		<route edges="genE316 genE297"/>
	</vehicle>
	<vehicle depart="481.49" departLane="free" departSpeed="max" id="15006" type="HV">
		<route edges="genE296 genE317"/>
	</vehicle>
	<vehicle depart="481.77" departLane="free" departSpeed="max" id="14893" type="HV">
		<route edges="genE296 genE317"/>
	</vehicle>
	<vehicle depart="484.41" departLane="free" departSpeed="max" id="15377" type="HV">
		<route edges="genE316 genE317"/>
	</vehicle>
	<vehicle depart="496.05" departLane="free" departSpeed="max" id="15345" type="HV">
		<route edges="genE316 genE317"/>
	</vehicle>
	<vehicle depart="499.28" departLane="free" departSpeed="max" id="14895" type="HV">
		<route edges="genE296 genE317"/>
	</vehicle>
	<vehicle depart="500.5" departLane="free" departSpeed="max" id="14509" type="HV">
		<route edges="genE318 genE307"/>
	</vehicle>
	<vehicle depart="506.85" departLane="free" departSpeed="max" id="14704" type="CV">
		<route edges="genE296 genE307"/>
	</vehicle>
	<vehicle depart="509.48" departLane="free" departSpeed="max" id="15133" type="HV">
		<route edges="genE316 genE297"/>
	</vehicle>
	<vehicle depart="514.46" departLane="free" departSpeed="max" id="14752" type="HV">
		<route edges="genE296 genE307"/>
	</vehicle>
	<vehicle depart="517.75" departLane="free" departSpeed="max" id="15104" type="HV">
		<route edges="genE316 genE297"/>
	</vehicle>
	<vehicle depart="518.87" departLane="free" departSpeed="max" id="14845" type="HV">
		<route edges="genE296 genE317"/>
	</vehicle>
	<vehicle depart="528.74" departLane="free" departSpeed="max" id="14894" type="CV">
		<route edges="genE296 genE317"/>
	</vehicle>
	<vehicle depart="531.54" departLane="free" departSpeed="max" id="14571" type="HV">
		<route edges="genE318 genE307"/>
	</vehicle>
	<vehicle depart="534.51" departLane="free" departSpeed="max" id="15418" type="HV">
		<route edges="genE316 genE317"/>
	</vehicle>
	<vehicle depart="536.33" departLane="free" departSpeed="max" id="14929" type="HV">
		<route edges="genE296 genE317"/>
	</vehicle>
	<vehicle depart="537.31" departLane="free" departSpeed="max" id="15039" type="HV">
		<route edges="genE296 genE317"/>
	</vehicle>
	<vehicle depart="537.58" departLane="free" departSpeed="max" id="14408" type="HV">
		<route edges="genE318 genE297"/>
	</vehicle>
	<vehicle depart="544.94" departLane="free" departSpeed="max" id="14368" type="HV">
		<route edges="genE318 genE297"/>
	</vehicle>
	<vehicle depart="546.46" departLane="free" departSpeed="max" id="14616" type="HV">
		<route edges="genE296 genE307"/>
	</vehicle>
	<vehicle depart="548.45" departLane="free" departSpeed="max" id="14389" type="HV">
		<route edges="genE318 genE297"/>
	</vehicle>
	<vehicle depart="549.21" departLane="free" departSpeed="max" id="14901" type="HV">
		<route edges="genE296 genE317"/>
	</vehicle>
	<vehicle depart="553.14" departLane="free" departSpeed="max" id="15142" type="HV">
		<route edges="genE316 genE297"/>
	</vehicle>
	<vehicle depart="560.82" departLane="free" departSpeed="max" id="14737" type="CV">
		<route edges="genE296 genE307"/>
	</vehicle>
	<vehicle depart="561.08" departLane="free" departSpeed="max" id="14865" type="HV">
		<route edges="genE296 genE317"/>
	</vehicle>
	<vehicle depart="566.1" departLane="free" departSpeed="max" id="14821" type="HV">
		<route edges="genE296 genE317"/>
	</vehicle>
	<vehicle depart="570.36" departLane="free" departSpeed="max" id="14886" type="HV">
		<route edges="genE296 genE317"/>
	</vehicle>
	<vehicle depart="574.46" departLane="free" departSpeed="max" id="14338" type="HV">
		<route edges="genE318 genE297"/>
	</vehicle>
	<vehicle depart="578.22" departLane="free" departSpeed="max" id="14403" type="HV">
		<route edges="genE318 genE297"/>
	</vehicle>
	<vehicle depart="582.14" departLane="free" departSpeed="max" id="14811" type="HV">
		<route edges="genE296 genE317"/>
	</vehicle>
	<vehicle depart="583.99" departLane="free" departSpeed="max" id="15331" type="CV">
		<route edges="genE316 genE317"/>
	</vehicle>
	<vehicle depart="585.28" departLane="free" departSpeed="max" id="15015" type="HV">
		<route edges="genE296 genE317"/>
	</vehicle>
	<vehicle depart="587.33" departLane="free" departSpeed="max" id="15364" type="CV">
		<route edges="genE316 genE317"/>
	</vehicle>
	<vehicle depart="588.52" departLane="free" departSpeed="max" id="14933" type="HV">
		<route edges="genE296 genE317"/>
	</vehicle>
	<vehicle depart="588.84" departLane="free" departSpeed="max" id="15056" type="HV">
		<route edges="genE316 genE297"/>
	</vehicle>
	<vehicle depart="592.51" departLane="free" departSpeed="max" id="14948" type="CV">
		<route edges="genE296 genE317"/>
	</vehicle>
	<vehicle depart="596.84" departLane="free" departSpeed="max" id="14649" type="HV">
		<route edges="genE296 genE307"/>
	</vehicle>
	<vehicle depart="600.14" departLane="free" departSpeed="max" id="14379" type="HV">
		<route edges="genE318 genE297"/>
	</vehicle>
	<vehicle depart="601.07" departLane="free" departSpeed="max" id="15457" type="HV">
		<route edges="genE316 genE317"/>
	</vehicle>
	<vehicle depart="605.62" departLane="free" departSpeed="max" id="14727" type="CV">
		<route edges="genE296 genE307"/>
	</vehicle>
	<vehicle depart="607.9" departLane="free" departSpeed="max" id="15129" type="CV">
		<route edges="genE316 genE297"/>
	</vehicle>
	<vehicle depart="610.97" departLane="free" departSpeed="max" id="15401" type="CV">
		<route edges="genE316 genE317"/>
	</vehicle>
	<vehicle depart="621.53" departLane="free" departSpeed="max" id="15132" type="CV">
		<route edges="genE316 genE297"/>
	</vehicle>
	<vehicle depart="629.51" departLane="free" departSpeed="max" id="14407" type="HV">
		<route edges="genE318 genE297"/>
	</vehicle>
	<vehicle depart="630.72" departLane="free" departSpeed="max" id="15301" type="HV">
		<route edges="genE316 genE317"/>
	</vehicle>
	<vehicle depart="633.69" departLane="free" departSpeed="max" id="15081" type="HV">
		<route edges="genE316 genE297"/>
	</vehicle>
	<vehicle depart="636.35" departLane="free" departSpeed="max" id="15471" type="HV">
		<route edges="genE316 genE317"/>
	</vehicle>
	<vehicle depart="637.88" departLane="free" departSpeed="max" id="15141" type="HV">
		<route edges="genE316 genE297"/>
	</vehicle>
	<vehicle depart="639.11" departLane="free" departSpeed="max" id="14691" type="CV">
		<route edges="genE296 genE307"/>
	</vehicle>
	<vehicle depart="639.18" departLane="free" departSpeed="max" id="15380" type="HV">
		<route edges="genE316 genE317"/>
	</vehicle>
	<vehicle depart="639.36" departLane="free" departSpeed="max" id="15149" type="HV">
		<route edges="genE316 genE297"/>
	</vehicle>
	<vehicle depart="655.2" departLane="free" departSpeed="max" id="14813" type="HV">
		<route edges="genE296 genE317"/>
	</vehicle>
	<vehicle depart="661.53" departLane="free" departSpeed="max" id="14337" type="HV">
		<route edges="genE318 genE297"/>
	</vehicle>
	<vehicle depart="674.48" departLane="free" departSpeed="max" id="15445" type="HV">
		<route edges="genE316 genE317"/>
	</vehicle>
	<vehicle depart="675.92" departLane="free" departSpeed="max" id="14600" type="HV">
		<route edges="genE296 genE307"/>
	</vehicle>
	<vehicle depart="676.14" departLane="free" departSpeed="max" id="15280" type="HV">
		<route edges="genE316 genE297"/>
	</vehicle>
	<vehicle depart="680.15" departLane="free" departSpeed="max" id="15347" type="CV">
		<route edges="genE316 genE317"/>
	</vehicle>
	<vehicle depart="681.34" departLane="free" departSpeed="max" id="14588" type="HV">
		<route edges="genE318 genE307"/>
	</vehicle>
	<vehicle depart="682.39" departLane="free" departSpeed="max" id="14518" type="CV">
		<route edges="genE318 genE307"/>
	</vehicle>
	<vehicle depart="682.43" departLane="free" departSpeed="max" id="15233" type="HV">
		<route edges="genE316 genE297"/>
	</vehicle>
	<vehicle depart="684.9" departLane="free" departSpeed="max" id="14324" type="HV">
		<route edges="genE318 genE297"/>
	</vehicle>
	<vehicle depart="688.71" departLane="free" departSpeed="max" id="14522" type="HV">
		<route edges="genE318 genE307"/>
	</vehicle>
	<vehicle depart="689.74" departLane="free" departSpeed="max" id="14939" type="HV">
		<route edges="genE296 genE317"/>
	</vehicle>
	<vehicle depart="702.2" departLane="free" departSpeed="max" id="14541" type="CV">
		<route edges="genE318 genE307"/>
	</vehicle>
	<vehicle depart="707.03" departLane="free" departSpeed="max" id="14665" type="HV">
		<route edges="genE296 genE307"/>
	</vehicle>
	<vehicle depart="711.33" departLane="free" departSpeed="max" id="15032" type="HV">
		<route edges="genE296 genE317"/>
	</vehicle>
	<vehicle depart="714.34" departLane="free" departSpeed="max" id="14454" type="CV">
		<route edges="genE318 genE307"/>
	</vehicle>
	<vehicle depart="719.81" departLane="free" departSpeed="max" id="14824" type="HV">
		<route edges="genE296 genE317"/>
	</vehicle>
	<vehicle depart="721.14" departLane="free" departSpeed="max" id="14609" type="HV">
		<route edges="genE296 genE307"/>
	</vehicle>
	<vehicle depart="723.13" departLane="free" departSpeed="max" id="14619" type="HV">
		<route edges="genE296 genE307"/>
	</vehicle>
	<vehicle depart="724.5" departLane="free" departSpeed="max" id="15384" type="CV">
		<route edges="genE316 genE317"/>
	</vehicle>
	<vehicle depart="733.63" departLane="free" departSpeed="max" id="15357" type="CV">
		<route edges="genE316 genE317"/>
	</vehicle>
	<vehicle depart="739.31" departLane="free" departSpeed="max" id="15205" type="HV">
		<route edges="genE316 genE297"/>
	</vehicle>
	<vehicle depart="742.01" departLane="free" departSpeed="max" id="15319" type="HV">
		<route edges="genE316 genE317"/>
	</vehicle>
	<vehicle depart="744.11" departLane="free" departSpeed="max" id="14698" type="HV">
		<route edges="genE296 genE307"/>
	</vehicle>
	<vehicle depart="746.91" departLane="free" departSpeed="max" id="15207" type="HV">
		<route edges="genE316 genE297"/>
	</vehicle>
	<vehicle depart="755.51" departLane="free" departSpeed="max" id="14500" type="HV">
		<route edges="genE318 genE307"/>
	</vehicle>
	<vehicle depart="757.4" departLane="free" departSpeed="max" id="14543" type="HV">
		<route edges="genE318 genE307"/>
	</vehicle>
	<vehicle depart="765.19" departLane="free" departSpeed="max" id="14538" type="HV">
		<route edges="genE318 genE307"/>
	</vehicle>
	<vehicle depart="769.04" departLane="free" departSpeed="max" id="14330" type="HV">
		<route edges="genE318 genE297"/>
	</vehicle>
	<vehicle depart="772.21" departLane="free" departSpeed="max" id="15410" type="HV">
		<route edges="genE316 genE317"/>
	</vehicle>
	<vehicle depart="773.6" departLane="free" departSpeed="max" id="15102" type="HV">
		<route edges="genE316 genE297"/>
	</vehicle>
	<vehicle depart="773.94" departLane="free" departSpeed="max" id="15274" type="HV">
		<route edges="genE316 genE297"/>
	</vehicle>
	<vehicle depart="774.35" departLane="free" departSpeed="max" id="15243" type="HV">
		<route edges="genE316 genE297"/>
	</vehicle>
	<vehicle depart="775.64" departLane="free" departSpeed="max" id="14514" type="HV">
		<route edges="genE318 genE307"/>
	</vehicle>
	<vehicle depart="776.09" departLane="free" departSpeed="max" id="14534" type="HV">
		<route edges="genE318 genE307"/>
	</vehicle>
	<vehicle depart="777.3" departLane="free" departSpeed="max" id="15043" type="HV">
		<route edges="genE296 genE317"/>
	</vehicle>
	<vehicle depart="783.81" departLane="free" departSpeed="max" id="14613" type="HV">
		<route edges="genE296 genE307"/>
	</vehicle>
	<vehicle depart="786.24" departLane="free" departSpeed="max" id="14404" type="HV">
		<route edges="genE318 genE297"/>
	</vehicle>
	<vehicle depart="790.35" departLane="free" departSpeed="max" id="15110" type="HV">
		<route edges="genE316 genE297"/>
	</vehicle>
	<vehicle depart="791.2" departLane="free" departSpeed="max" id="15019" type="CV">
		<route edges="genE296 genE317"/>