<?xml version="1.0" ?>
<routes>
	<vType accel="0.8" decel="4.5" id="CV" length="5" maxSpeed="45" sigma="0.5"/>
	<vType accel="0.8" decel="4.5" id="HV" length="5" maxSpeed="40" sigma="0.5"/>
	<vehicle depart="11.12" departLane="free" departSpeed="max" id="244" type="CV">
		<route edges="genE316 genE317"/>
	</vehicle>
	<vehicle depart="16.72" departLane="free" departSpeed="max" id="87" type="HV">
		<route edges="genE296 genE307"/>
	</vehicle>
	<vehicle depart="18.39" departLane="free" departSpeed="max" id="9" type="HV">
		<route edges="genE318 genE297"/>
	</vehicle>
	<vehicle depart="27.48" departLane="free" departSpeed="max" id="60" type="HV">
		<route edges="genE296 genE307"/>
	</vehicle>
	<vehicle depart="36.86" departLane="free" departSpeed="max" id="197" type="HV">
		<route edges="genE316 genE297"/>
	</vehicle>
	<vehicle depart="39.03" departLane="free" departSpeed="max" id="141" type="HV">
		<route edges="genE296 genE317"/>
	</vehicle>
	<vehicle depart="55.65" departLane="free" departSpeed="max" id="5" type="HV">
		<route edges="genE318 genE297"/>
	</vehicle>
	<vehicle depart="101.43" departLane="free" departSpeed="max" id="222" type="HV">
		<route edges="genE316 genE317"/>
	</vehicle>
	<vehicle depart="116.59" departLane="free" departSpeed="max" id="128" type="HV">
		<route edges="genE296 genE317"/>
	</vehicle>
	<vehicle depart="163.02" departLane="free" departSpeed="max" id="19" type="HV">
		<route edges="genE318 genE297"/>
	</vehicle>
	<vehicle depart="169.75" departLane="free" departSpeed="max" id="91" type="HV">
		<route edges="genE296 genE307"/>
	</vehicle>
	<vehicle depart="179.52" departLane="free" departSpeed="max" id="136" type="HV">
		<route edges="genE296 genE317"/>
	</vehicle>
	<vehicle depart="186.01" departLane="free" departSpeed="max" id="72" type="HV">
		<route edges="genE296 genE307"/>
	</vehicle>
	<vehicle depart="202.95" departLane="free" departSpeed="max" id="255" type="HV">
		<route edges="genE316 genE317"/>
	</vehicle>
	<vehicle depart="214.16" departLane="free" departSpeed="max" id="146" type="HV">
		<route edges="genE296 genE317"/>
	</vehicle>
	<vehicle depart="215.86" departLane="free" departSpeed="max" id="215" type="HV">
		<route edges="genE316 genE317"/>
	</vehicle>
	<vehicle depart="238.38" departLane="free" departSpeed="max" id="27" type="CV">
		<route edges="genE318 genE307"/>
	</vehicle>
	<vehicle depart="292.21" departLane="free" departSpeed="max" id="196" type="HV">
		<route edges="genE316 genE297"/>
	</vehicle>
	<vehicle depart="322.82" departLane="free" departSpeed="max" id="97" type="HV">
		<route edges="genE296 genE307"/>
	</vehicle>
	<vehicle depart="325.69" departLane="free" departSpeed="max" id="69" type="HV">
		<route edges="genE296 genE307"/>
	</vehicle>
	<vehicle depart="326.27" departLane="free" departSpeed="max" id="179" type="CV">
		<route edges="genE316 genE297"/>
	</vehicle>
	<vehicle depart="349.67" departLane="free" departSpeed="max" id="182" type="HV">
		<route edges="genE316 genE297"/>
	</vehicle>
	<vehicle depart="353.09" departLane="free" departSpeed="max" id="49" type="HV">
		<route edges="genE318 genE307"/>
	</vehicle>
	<vehicle depart="357.13" departLane="free" departSpeed="max" id="206" type="CV">
		<route edges="genE316 genE297"/>
	</vehicle>
	<vehicle depart="363.29" departLane="free" departSpeed="max" id="50" type="CV">
		<route edges="genE318 genE307"/>
	</vehicle>
	<vehicle depart="363.53" departLane="free" departSpeed="max" id="86" type="HV">
		<route edges="genE296 genE307"/>
	</vehicle>
	<vehicle depart="368.78" departLane="free" departSpeed="max" id="82" type="HV">
		<route edges="genE296 genE307"/>
	</vehicle>
	<vehicle depart="370.79" departLane="free" departSpeed="max" id="113" type="CV">
		<route edges="genE296 genE317"/>
	</vehicle>
	<vehicle depart="381.92" departLane="free" departSpeed="max" id="7" type="HV">
		<route edges="genE318 genE297"/>
	</vehicle>
	<vehicle depart="397.95" departLane="free" departSpeed="max" id="94" type="HV">
		<route edges="genE296 genE307"/>
	</vehicle>
	<vehicle depart="410.68" departLane="free" departSpeed="max" id="42" type="HV">
		<route edges="genE318 genE307"/>
	</vehicle>
	<vehicle depart="423.68" departLane="free" departSpeed="max" id="33" type="CV">
		<route edges="genE318 genE307"/>
	</vehicle>
	<vehicle depart="429.67" departLane="free" departSpeed="max" id="207" type="HV">
		<route edges="genE316 genE297"/>
	</vehicle>
	<vehicle depart="433.87" departLane="free" departSpeed="max" id="30" type="HV">
		<route edges="genE318 genE307"/>
	</vehicle>
	<vehicle depart="436.43" departLane="free" departSpeed="max" id="26" type="CV">
		<route edges="genE318 genE307"/>
	</vehicle>
	<vehicle depart="464.16" departLane="free" departSpeed="max" id="204" type="HV">
		<route edges="genE316 genE297"/>
	</vehicle>
	<vehicle depart="476.94" departLane="free" departSpeed="max" id="1" type="CV">
		<route edges="genE318 genE297"/>
	</vehicle>
	<vehicle depart="505.51" departLane="free" departSpeed="max" id="177" type="CV">
		<route edges="genE316 genE297"/>
	</vehicle>
	<vehicle depart="506.14" departLane="free" departSpeed="max" id="112" type="HV">
		<route edges="genE296 genE317"/>
	</vehicle>
	<vehicle depart="555.69" departLane="free" departSpeed="max" id="219" type="HV">
		<route edges="genE316 genE317"/>
	</vehicle>
	<vehicle depart="558.98" departLane="free" departSpeed="max" id="107" type="HV">
		<route edges="genE296 genE317"/>
	</vehicle>
	<vehicle depart="560.1" departLane="free" departSpeed="max" id="240" type="HV">
		<route edges="genE316 genE317"/>
	</vehicle>
	<vehicle depart="568.32" departLane="free" departSpeed="max" id="151" type="HV">
		<route edges="genE296 genE317"/>
	</vehicle>
	<vehicle depart="574.15" departLane="free" departSpeed="max" id="175" type="HV">
		<route edges="genE316 genE297"/>
	</vehicle>
	<vehicle depart="581.56" departLane="free" departSpeed="max" id="101" type="HV">
		<route edges="genE296 genE307"/>
	</vehicle>
	<vehicle depart="592.1" departLane="free" departSpeed="max" id="142" type="HV">
		<route edges="genE296 genE317"/>
	</vehicle>
	<vehicle depart="596.97" departLane="free" departSpeed="max" id="23" type="HV">
		<route edges="genE318 genE307"/>
	</vehicle>
	<vehicle depart="610.28" departLane="free" departSpeed="max" id="115" type="HV">
		<route edges="genE296 genE317"/>
	</vehicle>
	<vehicle depart="617.57" departLane="free" departSpeed="max" id="76" type="HV">
		<route edges="genE296 genE307"/>
	</vehicle>
	<vehicle depart="628.79" departLane="free" departSpeed="max" id="22" type="HV">
		<route edges="genE318 genE307"/>
	</vehicle>
	<vehicle depart="669.55" departLane="free" departSpeed="max" id="83" type="HV">
		<route edges="genE296 genE307"/>
	</vehicle>
	<vehicle depart="674.42" departLane="free" departSpeed="max" id="15" type="HV">
		<route edges="genE318 genE297"/>
	</vehicle>
	<vehicle depart="688.48" departLane="free" departSpeed="max" id="90" type="HV">
		<route edges="genE296 genE307"/>
	</vehicle>
	<vehicle depart="709.44" departLane="free" departSpeed="max" id="208" type="HV">
		<route edges="genE316 genE297"/>
	</vehicle>
	<vehicle depart="724.95" departLane="free" departSpeed="max" id="17" type="HV">
		<route edges="genE318 genE297"/>
	</vehicle>
	<vehicle depart="735.11" departLane="free" departSpeed="max" id="228" type="HV">
		<route edges="genE316 genE317"/>
	</vehicle>
	<vehicle depart="741.96" departLane="free" departSpeed="max" id="172" type="HV">
		<route edges="genE316 genE297"/>
	</vehicle>
	<vehicle depart="754.69" departLane="free" departSpeed="max" id="3" type="HV">
		<route edges="genE318 genE297"/>
	</vehicle>
	<vehicle depart="759.36" departLane="free" departSpeed="max" id="149" type="HV">
		<route edges="genE296 genE317"/>
	</vehicle>
	<vehicle depart="764.28" departLane="free" departSpeed="max" id="14" type="HV">
		<route edges="genE318 genE297"/>
	</vehicle>
	<vehicle depart="767.89" departLane="free" departSpeed="max" id="127" type="HV">
		<route edges="genE296 genE317"/>
	</vehicle>
	<vehicle depart="784.0" departLane="free" departSpeed="max" id="163" type="HV">
		<route edges="genE316 genE297"/>
	</vehicle>
	<vehicle depart="787.08" departLane="free" departSpeed="max" id="106" type="HV">
		<route edges="genE296 genE307"/>
	</vehicle>
	<vehicle depart="842.52" departLane="free" departSpeed="max" id="24" type="HV">
		<route edges="genE318 genE307"/>
	</vehicle>
	<vehicle depart="859.6" departLane="free" departSpeed="max" id="100" type="CV">
		<route edges="genE296 genE307"/>
	</vehicle>
	<vehicle depart="869.6" departLane="free" departSpeed="max" id="16" type="CV">
		<route edges="genE318 genE297"/>
	</vehicle>
	<vehicle depart="873.05" departLane="free" departSpeed="max" id="133" type="HV">
		<route edges="genE296 genE317"/>
	</vehicle>
	<vehicle depart="873.9" departLane="free" departSpeed="max" id="169" type="HV">
		<route edges="genE316 genE297"/>
	</vehicle>
	<vehicle depart="912.02" departLane="free" departSpeed="max" id="12" type="HV">
		<route edges="genE318 genE297"/>
	</vehicle>
	<vehicle depart="913.53" departLane="free" departSpeed="max" id="170" type="HV">
		<route edges="genE316 genE297"/>
	</vehicle>
	<vehicle depart="918.04" departLane="free" departSpeed="max" id="217" type="HV">
		<route edges="genE316 genE317"/>
	</vehicle>
	<vehicle depart="927.91" departLane="free" departSpeed="max" id="40" type="HV">
		<route edges="genE318 genE307"/>
	</vehicle>
	<vehicle depart="937.58" departLane="free" departSpeed="max" id="211" type="HV">
		<route edges="genE316 genE297"/>
	</vehicle>
	<vehicle depart="957.25" departLane="free" departSpeed="max" id="85" type="HV">
		<route edges="genE296 genE307"/>
	</vehicle>
	<vehicle depart="972.03" departLane="free" departSpeed="max" id="29" type="HV">
		<route edges="genE318 genE307"/>
	</vehicle>
	<vehicle depart="997.77" departLane="free" departSpeed="max" id="62" type="HV">
		<route edges="genE296 genE307"/>
	</vehicle>
	<vehicle depart="1010.05" departLane="free" departSpeed="max" id="156" type="HV">
		<route edges="genE296 genE317"/>
	</vehicle>
	<vehicle depart="1010.3" departLane="free" departSpeed="max" id="144" type="HV">
		<route edges="genE296 genE317"/>
	</vehicle>
	<vehicle depart="1025.76" departLane="free" departSpeed="max" id="139" type="CV">
		<route edges="genE296 genE317"/>
	</vehicle>
	<vehicle depart="1034.54" departLane="free" departSpeed="max" id="54" type="CV">
		<route edges="genE318 genE307"/>
	</vehicle>
	<vehicle depart="1038.84" departLane="free" departSpeed="max" id="39" type="HV">
		<route edges="genE318 genE307"/>
	</vehicle>
	<vehicle depart="1066.39" departLane="free" departSpeed="max" id="168" type="HV">
		<route edges="genE316 genE297"/>
	</vehicle>
	<vehicle depart="1082.06" departLane="free" departSpeed="max" id="239" type="HV">
		<route edges="genE316 genE317"/>
	</vehicle>
	<vehicle depart="1086.27" departLane="free" departSpeed="max" id="11" type="HV">
		<route edges="genE318 genE297"/>
	</vehicle>
	<vehicle depart="1088.28" departLane="free" departSpeed="max" id="203" type="HV">
		<route edges="genE316 genE297"/>
	</vehicle>
	<vehicle depart="1118.06" departLane="free" departSpeed="max" id="28" type="HV">
		<route edges="genE318 genE307"/>
	</vehicle>
	<vehicle depart="1130.77" departLane="free" departSpeed="max" id="55" type="HV">
		<route edges="genE318 genE307"/>
	</vehicle>
	<vehicle depart="1146.71" departLane="free" departSpeed="max" id="21" type="HV">
		<route edges="genE318 genE307"/>
	</vehicle>
	<vehicle depart="1168.12" departLane="free" departSpeed="max" id="214" type="HV">
		<route edges="genE316 genE317"/>
	</vehicle>
	<vehicle depart="1184.71" departLane="free" departSpeed="max" id="61" type="CV">
		<route edges="genE296 genE307"/>
	</vehicle>
	<vehicle depart="1226.79" departLane="free" departSpeed="max" id="213" type="HV">
		<route edges="genE316 genE297"/>
	</vehicle>
	<vehicle depart="1238.9" departLane="free" departSpeed="max" id="65" type="CV">
		<route edges="genE296 genE307"/>
	</vehicle>
	<vehicle depart="1247.62" departLane="free" departSpeed="max" id="84" type="HV">
		<route edges="genE296 genE307"/>
	</vehicle>
	<vehicle depart="1256.12" departLane="free" departSpeed="max" id="68" type="HV">
		<route edges="genE296 genE307"/>
	</vehicle>
	<vehicle depart="1261.83" departLane="free" departSpeed="max" id="205" type="HV">
		<route edges="genE316 genE297"/>
	</vehicle>
	<vehicle depart="1266.86" departLane="free" departSpeed="max" id="95" type="HV">
		<route edges="genE296 genE307"/>
	</vehicle>
	<vehicle depart="1275.7" departLane="free" departSpeed="max" id="162" type="HV">
		<route edges="genE316 genE297"/>
	</vehicle>
	<vehicle depart="1299.24" departLane="free" departSpeed="max" id="226" type="HV">
		<route edges="genE316 genE317"/>
	</vehicle>
	<vehicle depart="1302.21" departLane="free" departSpeed="max" id="35" type="CV">
		<route edges="genE318 genE307"/>
	</vehicle>
	<vehicle depart="1312.47" departLane="free" departSpeed="max" id="88" type="HV">
		<route edges="genE296 genE307"/>
	</vehicle>
	<vehicle depart="1312.62" departLane="free" departSpeed="max" id="245" type="HV">
		<route edges="genE316 genE317"/>
	</vehicle>
	<vehicle depart="1320.54" departLane="free" departSpeed="max" id="74" type="HV">
		<route edges="genE296 genE307"/>
	</vehicle>
	<vehicle depart="1336.43" departLane="free" departSpeed="max" id="77" type="HV">
		<route edges="genE296 genE307"/>
	</vehicle>
	<vehicle depart="1364.1" departLane="free" departSpeed="max" id="130" type="HV">
		<route edges="genE296 genE317"/>
	</vehicle>
	<vehicle depart="1396.2" departLane="free" departSpeed="max" id="254" type="HV">
		<route edges="genE316 genE317"/>
	</vehicle>
	<vehicle depart="1396.33" departLane="free" departSpeed="max" id="238" type="HV">
		<route edges="genE316 genE317"/>
	</vehicle>
	<vehicle depart="1405.95" departLane="free" departSpeed="max" id="154" type="CV">
		<route edges="genE296 genE317"/>
	</vehicle>
	<vehicle depart="1407.79" departLane="free" departSpeed="max" id="121" type="CV">
		<route edges="genE296 genE317"/>
	</vehicle>
	<vehicle depart="1427.32" departLane="free" departSpeed="max" id="248" type="HV">
		<route edges="genE316 genE317"/>
	</vehicle>
	<vehicle depart="1469.82" departLane="free" departSpeed="max" id="135" type="HV">
		<route edges="genE296 genE317"/>
	</vehicle>
	<vehicle depart="1520.78" departLane="free" departSpeed="max" id="180" type="HV">
		<route edges="genE316 genE297"/>
	</vehicle>
	<vehicle depart="1578.35" departLane="free" departSpeed="max" id="189" type="HV">
		<route edges="genE316 genE297"/>
	</vehicle>
	<vehicle depart="1580.77" departLane="free" departSpeed="max" id="8" type="HV">
		<route edges="genE318 genE297"/>
	</vehicle>
	<vehicle depart="1598.65" departLane="free" departSpeed="max" id="236" type="HV">
		<route edges="genE316 genE317"/>
	</vehicle>
	<vehicle depart="1609.33" departLane="free" departSpeed="max" id="159" type="HV">
		<route edges="genE296 genE317"/>
	</vehicle>
	<vehicle depart="1620.66" departLane="free" departSpeed="max" id="145" type="HV">
		<route edges="genE296 genE317"/>
	</vehicle>
	<vehicle depart="1631.96" departLane="free" departSpeed="max" id="105" type="HV">
		<route edges="genE296 genE307"/>
	</vehicle>
	<vehicle depart="1669.56" departLane="free" departSpeed="max" id="56" type="HV">
		<route edges="genE318 genE307"/>
	</vehicle>
	<vehicle depart="1682.3" departLane="free" departSpeed="max" id="194" type="HV">
		<route edges="genE316 genE297"/>
	</vehicle>
	<vehicle depart="1682.52" departLane="free" departSpeed="max" id="157" type="HV">
		<route edges="genE296 genE317"/>
	</vehicle>
	<vehicle depart="1684.2" departLane="free" departSpeed="max" id="58" type="HV">
		<route edges="genE318 genE307"/>
	</vehicle>
	<vehicle depart="1690.02" departLane="free" departSpeed="max" id="233" type="HV">
		<route edges="genE316 genE317"/>
	</vehicle>
	<vehicle depart="1708.06" departLane="free" departSpeed="max" id="153" type="HV">
		<route edges="genE296 genE317"/>
	</vehicle>
	<vehicle depart="1758.52" departLane="free" departSpeed="max" id="186" type="HV">
		<route edges="genE316 genE297"/>
	</vehicle>
	<vehicle depart="1762.81" departLane="free" departSpeed="max" id="44" type="HV">
		<route edges="genE318 genE307"/>
	</vehicle>
	<vehicle depart="1763.21" departLane="free" departSpeed="max" id="32" type="HV">
		<route edges="genE318 genE307"/>
	</vehicle>
	<vehicle depart="1775.13" departLane="free" departSpeed="max" id="229" type="HV">
		<route edges="genE316 genE317"/>
	</vehicle>
	<vehicle depart="1780.2" departLane="free" departSpeed="max" id="143" type="HV">
		<route edges="genE296 genE317"/>
	</vehicle>
	<vehicle depart="1810.52" departLane="free" departSpeed="max" id="200" type="HV">
		<route edges="genE316 genE297"/>
	</vehicle>
	<vehicle depart="1812.21" departLane="free" departSpeed="max" id="235" type="HV">
		<route edges="genE316 genE317"/>
	</vehicle>
	<vehicle depart="1817.33" departLane="free" departSpeed="max" id="6" type="HV">
		<route edges="genE318 genE297"/>
	</vehicle>
	<vehicle depart="1822.07" departLane="free" departSpeed="max" id="48" type="HV">
		<route edges="genE318 genE307"/>
	</vehicle>
	<vehicle depart="1824.13" departLane="free" departSpeed="max" id="109" type="CV">
		<route edges="genE296 genE317"/>
	</vehicle>
	<vehicle depart="1834.46" departLane="free" departSpeed="max" id="116" type="HV">
		<route edges="genE296 genE317"/>
	</vehicle>
	<vehicle depart="1847.7" departLane="free" departSpeed="max" id="2" type="HV">
		<route edges="genE318 genE297"/>
	</vehicle>
	<vehicle depart="1848.48" departLane="free" departSpeed="max" id="18" type="HV">
		<route edges="genE318 genE297"/>
	</vehicle>
	<vehicle depart="1849.67" departLane="free" departSpeed="max" id="122" type="HV">
		<route edges="genE296 genE317"/>
	</vehicle>
	<vehicle depart="1886.85" departLane="free" departSpeed="max" id="92" type="HV">
		<route edges="genE296 genE307"/>
	</vehicle>
	<vehicle depart="1932.75" departLane="free" departSpeed="max" id="123" type="HV">
		<route edges="genE296 genE317"/>
	</vehicle>
	<vehicle depart="1943.63" departLane="free" departSpeed="max" id="25" type="HV">
		<route edges="genE318 genE307"/>
	</vehicle>
	<vehicle depart="1950.91" departLane="free" departSpeed="max" id="118" type="HV">
		<route edges="genE296 genE317"/>
	</vehicle>
	<vehicle depart="1972.95" departLane="free" departSpeed="max" id="57" type="HV">
		<route edges="genE318 genE307"/>
	</vehicle>
	<vehicle depart="2006.33" departLane="free" departSpeed="max" id="171" type="HV">
		<route edges="genE316 genE297"/>
	</vehicle>
	<vehicle depart="2012.06" departLane="free" departSpeed="max" id="138" type="HV">
		<route edges="genE296 genE317"/>
	</vehicle>
	<vehicle depart="2039.96" departLane="free" departSpeed="max" id="13" type="HV">
		<route edges="genE318 genE297"/>
	</vehicle>
	<vehicle depart="2085.47" departLane="free" departSpeed="max" id="81" type="CV">
		<route edges="genE296 genE307"/>
	</vehicle>
	<vehicle depart="2097.14" departLane="free" departSpeed="max" id="212" type="HV">
		<route edges="genE316 genE297"/>
	</vehicle>
	<vehicle depart="2104.54" departLane="free" departSpeed="max" id="45" type="HV">
		<route edges="genE318 genE307"/>
	</vehicle>
	<vehicle depart="2138.7" departLane="free" departSpeed="max" id="43" type="HV">
		<route edges="genE318 genE307"/>
	</vehicle>
	<vehicle depart="2169.75" departLane="free" departSpeed="max" id="34" type="HV">
		<route edges="genE318 genE307"/>
	</vehicle>
	<vehicle depart="2195.42" departLane="free" departSpeed="max" id="202" type="HV">
		<route edges="genE316 genE297"/>
	</vehicle>
	<vehicle depart="2198.82" departLane="free" departSpeed="max" id="46" type="HV">
		<route edges="genE318 genE307"/>
	</vehicle>
	<vehicle depart="2239.54" departLane="free" departSpeed="max" id="20" type="CV">
		<route edges="genE318 genE297"/>
	</vehicle>
	<vehicle depart="2252.8" departLane="free" departSpeed="max" id="59" type="CV">
		<route edges="genE296 genE307"/>
	</vehicle>
	<vehicle depart="2253.21" departLane="free" departSpeed="max" id="99" type="HV">
		<route edges="genE296 genE307"/>
	</vehicle>
	<vehicle depart="2264.4" departLane="free" departSpeed="max" id="38" type="CV">
		<route edges="genE318 genE307"/>
	</vehicle>
	<vehicle depart="2268.96" departLane="free" departSpeed="max" id="102" type="HV">
		<route edges="genE296 genE307"/>
	</vehicle>
	<vehicle depart="2276.89" departLane="free" departSpeed="max" id="37" type="CV">
		<route edges="genE318 genE307"/>
	</vehicle>
	<vehicle depart="2277.14" departLane="free" departSpeed="max" id="246" type="CV">
		<route edges="genE316 genE317"/>
	</vehicle>
	<vehicle depart="2279.74" departLane="free" departSpeed="max" id="36" type="CV">
		<route edges="genE318 genE307"/>
	</vehicle>
	<vehicle depart="2295.46" departLane="free" departSpeed="max" id="178" type="HV">
		<route edges="genE316 genE297"/>
	</vehicle>
	<vehicle depart="2300.46" departLane="free" departSpeed="max" id="10" type="HV">
		<route edges="genE318 genE297"/>
	</vehicle>
	<vehicle depart="2306.92" departLane="free" departSpeed="max" id="174" type="HV">
		<route edges="genE316 genE297"/>
	</vehicle>
	<vehicle depart="2311.62" departLane="free" departSpeed="max" id="158" type="HV">
		<route edges="genE296 genE317"/>
	</vehicle>
	<vehicle depart="2341.13" departLane="free" departSpeed="max" id="64" type="HV">
		<route edges="genE296 genE307"/>
	</vehicle>
	<vehicle depart="2359.25" departLane="free" departSpeed="max" id="41" type="HV">
		<route edges="genE318 genE307"/>
	</vehicle>
	<vehicle depart="2368.14" departLane="free" departSpeed="max" id="148" type="CV">
		<route edges="genE296 genE317"/>
	</vehicle>
	<vehicle depart="2381.01" departLane="free" departSpeed="max" id="216" type="HV">
		<route edges="genE316 genE317"/>
	</vehicle>
	<vehicle depart="2386.31" departLane="free" departSpeed="max" id="237" type="HV">
		<route edges="genE316 genE317"/>
	</vehicle>
	<vehicle depart="2394.16" departLane="free" departSpeed="max" id="173" type="CV">
		<route edges="genE316 genE297"/>
	</vehicle>
	<vehicle depart="2402.94" departLane="free" departSpeed="max" id="47" type="HV">
		<route edges="genE318 genE307"/>
	</vehicle>
	<vehicle depart="2420.13" departLane="free" departSpeed="max" id="221" type="CV">
		<route edges="genE316 genE317"/>
	</vehicle>
	<vehicle depart="2421.21" departLane="free" departSpeed="max" id="218" type="CV">
		<route edges="genE316 genE317"/>
	</vehicle>
	<vehicle depart="2431.38" departLane="free" departSpeed="max" id="126" type="CV">
		<route edges="genE296 genE317"/>
	</vehicle>
	<vehicle depart="2440.8" departLane="free" departSpeed="max" id="78" type="CV">
		<route edges="genE296 genE307"/>
	</vehicle>
	<vehicle depart="2442.46" departLane="free" departSpeed="max" id="160" type="HV">
		<route edges="genE296 genE317"/>
	</vehicle>
	<vehicle depart="2442.6" departLane="free" departSpeed="max" id="66" type="CV">
		<route edges="genE296 genE307"/>
	</vehicle>
	<vehicle depart="2488.08" departLane="free" departSpeed="max" id="0" type="HV">
		<route edges="genE318 genE297"/>
	</vehicle>
	<vehicle depart="2491.19" departLane="free" departSpeed="max" id="104" type="CV">
		<route edges="genE296 genE307"/>
	</vehicle>
	<vehicle depart="2537.5" departLane="free" departSpeed="max" id="71" type="CV">
		<route edges="genE296 genE307"/>
	</vehicle>
	<vehicle depart="2543.65" departLane="free" departSpeed="max" id="165" type="HV">
		<route edges="genE316 genE297"/>
	</vehicle>
	<vehicle depart="2571.59" departLane="free" departSpeed="max" id="73" type="HV">
		<route edges="genE296 genE307"/>
	</vehicle>
	<vehicle depart="2573.06" departLane="free" departSpeed="max" id="152" type="HV">
		<route edges="genE296 genE317"/>
	</vehicle>
	<vehicle depart="2573.19" departLane="free" departSpeed="max" id="63" type="CV">
		<route edges="genE296 genE307"/>
	</vehicle>
	<vehicle depart="2581.58" departLane="free" departSpeed="max" id="75" type="CV">
		<route edges="genE296 genE307"/>
	</vehicle>
	<vehicle depart="2585.76" departLane="free" departSpeed="max" id="134" type="HV">
		<route edges="genE296 genE317"/>
	</vehicle>
	<vehicle depart="2586.76" departLane="free" departSpeed="max" id="232" type="CV">
		<route edges="genE316 genE317"/>
	</vehicle>
	<vehicle depart="2593.71" departLane="free" departSpeed="max" id="161" type="CV">
		<route edges="genE316 genE297"/>
	</vehicle>
	<vehicle depart="2594.13" departLane="free" departSpeed="max" id="256" type="HV">
		<route edges="genE316 genE317"/>
	</vehicle>
	<vehicle depart="2596.25" departLane="free" departSpeed="max" id="225" type="CV">
		<route edges="genE316 genE317"/>
	</vehicle>
	<vehicle depart="2599.27" departLane="free" departSpeed="max" id="192" type="HV">
		<route edges="genE316 genE297"/>
	</vehicle>
	<vehicle depart="2609.2" departLane="free" departSpeed="max" id="147" type="CV">
		<route edges="genE296 genE317"/>
	</vehicle>
	<vehicle depart="2622.71" departLane="free" departSpeed="max" id="181" type="CV">
		<route edges="genE316 genE297"/>
	</vehicle>
	<vehicle depart="2623.45" departLane="free" departSpeed="max" id="199" type="HV">
		<route edges="genE316 genE297"/>
	</vehicle>
	<vehicle depart="2634.26" departLane="free" departSpeed="max" id="250" type="HV">
		<route edges="genE316 genE317"/>
	</vehicle>
	<vehicle depart="2634.72" departLane="free" departSpeed="max" id="210" type="HV">
		<route edges="genE316 genE297"/>
	</vehicle>
	<vehicle depart="2643.76" departLane="free" departSpeed="max" id="184" type="HV">
		<route edges="genE316 genE297"/>
	</vehicle>
	<vehicle depart="2692.95" departLane="free" departSpeed="max" id="227" type="HV">
		<route edges="genE316 genE317"/>
	</vehicle>
	<vehicle depart="2701.32" departLane="free" departSpeed="max" id="209" type="HV">
		<route edges="genE316 genE297"/>
	</vehicle>
	<vehicle depart="2720.57" departLane="free" departSpeed="max" id="247" type="HV">
		<route edges="genE316 genE317"/>
	</vehicle>
	<vehicle depart="2745.91" departLane="free" departSpeed="max" id="183" type="HV">
		<route edges="genE316 genE297"/>
	</vehicle>
	<vehicle depart="2755.44" departLane="free" departSpeed="max" id="164" type="HV">
		<route edges="genE316 genE297"/>
	</vehicle>
	<vehicle depart="2755.62" departLane="free" departSpeed="max" id="117" type="HV">
		<route edges="genE296 genE317"/>
	</vehicle>
	<vehicle depart="2769.21" departLane="free" departSpeed="max" id="224" type="HV">
		<route edges="genE316 genE317"/>
	</vehicle>
	<vehicle depart="2790.73" departLane="free" departSpeed="max" id="234" type="HV">
		<route edges="genE316 genE317"/>
	</vehicle>
	<vehicle depart="2803.8" departLane="free" departSpeed="max" id="243" type="HV">
		<route edges="genE316 genE317"/>
	</vehicle>
	<vehicle depart="2807.46" departLane="free" departSpeed="max" id="51" type="HV">
		<route edges="genE318 genE307"/>
	</vehicle>
	<vehicle depart="2821.36" departLane="free" departSpeed="max" id="252" type="HV">
		<route edges="genE316 genE317"/>
	</vehicle>
	<vehicle depart="2846.98" departLane="free" departSpeed="max" id="155" type="HV">
		<route edges="genE296 genE317"/>
	</vehicle>
	<vehicle depart="2853.62" departLane="free" departSpeed="max" id="70" type="HV">
		<route edges="genE296 genE307"/>
	</vehicle>
	<vehicle depart="2863.82" departLane="free" departSpeed="max" id="80" type="HV">
		<route edges="genE296 genE307"/>
	</vehicle>
	<vehicle depart="2877.51" departLane="free" departSpeed="max" id="176" type="HV">
		<route edges="genE316 genE297"/>
	</vehicle>
	<vehicle depart="2886.1" departLane="free" departSpeed="max" id="201" type="HV">
		<route edges="genE316 genE297"/>
	</vehicle>
	<vehicle depart="2913.56" departLane="free" departSpeed="max" id="93" type="HV">
		<route edges="genE296 genE307"/>
	</vehicle>
	<vehicle depart="2929.72" departLane="free" departSpeed="max" id="167" type="HV">
		<route edges="genE316 genE297"/>
	</vehicle>
	<vehicle depart="2936.74" departLane="free" departSpeed="max" id="253" type="HV">
		<route edges="genE316 genE317"/>
	</vehicle>
	<vehicle depart="2942.84" departLane="free" departSpeed="max" id="198" type="HV">
		<route edges="genE316 genE297"/>
	</vehicle>
	<vehicle depart="2945.58" departLane="free" departSpeed="max" id="230" type="HV">
		<route edges="genE316 genE317"/>
	</vehicle>
	<vehicle depart="2950.16" departLane="free" departSpeed="max" id="4" type="HV">
		<route edges="genE318 genE297"/>
	</vehicle>
	<vehicle depart="2950.92" departLane="free" departSpeed="max" id="187" type="HV">
		<route edges="genE316 genE297"/>
	</vehicle>
	<vehicle depart="2951.61" departLane="free" departSpeed="max" id="120" type="HV">
		<route edges="genE296 genE317"/>
	</vehicle>
	<vehicle depart="2963.32" departLane="free" departSpeed="max" id="220" type="HV">
		<route edges="genE316 genE317"/>
	</vehicle>
	<vehicle depart="2980.82" departLane="free" departSpeed="max" id="108" type="HV">
		<route edges="genE296 genE317"/>
	</vehicle>
	<vehicle depart="2982.05" departLane="free" departSpeed="max" id="119" type="HV">
		<route edges="genE296 genE317"/>
	</vehicle>
	<vehicle depart="2986.29" departLane="free" departSpeed="max" id="140" type="HV">
		<route edges="genE296 genE317"/>
	</vehicle>
	<vehicle depart="3015.75" departLane="free" departSpeed="max" id="110" type="HV">
		<route edges="genE296 genE317"/>
	</vehicle>
	<vehicle depart="3029.7" departLane="free" departSpeed="max" id="89" type="HV">
		<route edges="genE296 genE307"/>
	</vehicle>
	<vehicle depart="3041.47" departLane="free" departSpeed="max" id="241" type="HV">
		<route edges="genE316 genE317"/>
	</vehicle>
	<vehicle depart="3043.22" departLane="free" departSpeed="max" id="251" type="HV">
		<route edges="genE316 genE317"/>
	</vehicle>
	<vehicle depart="3043.58" departLane="free" departSpeed="max" id="129" type="HV">
		<route edges="genE296 genE317"/>
	</vehicle>
	<vehicle depart="3054.41" departLane="free" departSpeed="max" id="150" type="HV">
		<route edges="genE296 genE317"/>