<?xml version="1.0" ?>
<routes>
	<vType accel="0.8" decel="4.5" id="CV" length="5" maxSpeed="45" sigma="0.5"/>
	<vType accel="0.8" decel="4.5" id="HV" length="5" maxSpeed="40" sigma="0.5"/>
	<vehicle depart="1.99" departLane="free" departSpeed="max" id="15965" type="CV">
		<route edges="genE296 genE307"/>
	</vehicle>
	<vehicle depart="2.55" departLane="free" departSpeed="max" id="15490" type="HV">
		<route edges="genE318 genE297"/>
	</vehicle>
	<vehicle depart="3.04" departLane="free" departSpeed="max" id="15637" type="HV">
		<route edges="genE318 genE307"/>
	</vehicle>
	<vehicle depart="4.46" departLane="free" departSpeed="max" id="15986" type="HV">
		<route edges="genE296 genE307"/>
	</vehicle>
	<vehicle depart="8.37" departLane="free" departSpeed="max" id="16558" type="CV">
		<route edges="genE316 genE297"/>
	</vehicle>
	<vehicle depart="11.14" departLane="free" departSpeed="max" id="15785" type="HV">
		<route edges="genE296 genE307"/>
	</vehicle>
	<vehicle depart="12.17" departLane="free" departSpeed="max" id="16447" type="CV">
		<route edges="genE316 genE297"/>
	</vehicle>
	<vehicle depart="14.93" departLane="free" departSpeed="max" id="16355" type="CV">
		<route edges="genE316 genE297"/>
	</vehicle>
	<vehicle depart="15.94" departLane="free" departSpeed="max" id="16549" type="HV">
		<route edges="genE316 genE297"/>
	</vehicle>
	<vehicle depart="16.33" departLane="free" departSpeed="max" id="15985" type="HV">
		<route edges="genE296 genE307"/>
	</vehicle>
	<vehicle depart="16.4" departLane="free" departSpeed="max" id="16648" type="HV">
		<route edges="genE316 genE317"/>
	</vehicle>
	<vehicle depart="30.02" departLane="free" departSpeed="max" id="15759" type="HV">
		<route edges="genE318 genE307"/>
	</vehicle>
	<vehicle depart="36.47" departLane="free" departSpeed="max" id="16535" type="HV">
		<route edges="genE316 genE297"/>
	</vehicle>
	<vehicle depart="39.76" departLane="free" departSpeed="max" id="15749" type="CV">
		<route edges="genE318 genE307"/>
	</vehicle>
	<vehicle depart="40.83" departLane="free" departSpeed="max" id="15700" type="CV">
		<route edges="genE318 genE307"/>
	</vehicle>
	<vehicle depart="43.01" departLane="free" departSpeed="max" id="16600" type="HV">
		<route edges="genE316 genE317"/>
	</vehicle>
	<vehicle depart="47.59" departLane="free" departSpeed="max" id="16225" type="CV">
		<route edges="genE296 genE317"/>
	</vehicle>
	<vehicle depart="48.58" departLane="free" departSpeed="max" id="16120" type="HV">
		<route edges="genE296 genE317"/>
	</vehicle>
	<vehicle depart="55.88" departLane="free" departSpeed="max" id="16276" type="HV">
		<route edges="genE296 genE317"/>
	</vehicle>
	<vehicle depart="57.13" departLane="free" departSpeed="max" id="15522" type="HV">
		<route edges="genE318 genE297"/>
	</vehicle>
	<vehicle depart="57.54" departLane="free" departSpeed="max" id="15638" type="HV">
		<route edges="genE318 genE307"/>
	</vehicle>
	<vehicle depart="58.8" departLane="free" departSpeed="max" id="15780" type="HV">
		<route edges="genE296 genE307"/>
	</vehicle>
	<vehicle depart="60.77" departLane="free" departSpeed="max" id="16079" type="HV">
		<route edges="genE296 genE317"/>
	</vehicle>
	<vehicle depart="61.66" departLane="free" departSpeed="max" id="15764" type="HV">
		<route edges="genE318 genE307"/>
	</vehicle>
	<vehicle depart="67.74" departLane="free" departSpeed="max" id="16148" type="HV">
		<route edges="genE296 genE317"/>
	</vehicle>
	<vehicle depart="71.56" departLane="free" departSpeed="max" id="15967" type="CV">
		<route edges="genE296 genE307"/>
	</vehicle>
	<vehicle depart="73.19" departLane="free" departSpeed="max" id="16175" type="CV">
		<route edges="genE296 genE317"/>
	</vehicle>
	<vehicle depart="73.38" departLane="free" departSpeed="max" id="16411" type="HV">
		<route edges="genE316 genE297"/>
	</vehicle>
	<vehicle depart="81.09" departLane="free" departSpeed="max" id="15617" type="HV">
		<route edges="genE318 genE307"/>
	</vehicle>
	<vehicle depart="82.45" departLane="free" departSpeed="max" id="16444" type="HV">
		<route edges="genE316 genE297"/>
	</vehicle>
	<vehicle depart="86.19" departLane="free" departSpeed="max" id="15811" type="HV">
		<route edges="genE296 genE307"/>
	</vehicle>
	<vehicle depart="88.52" departLane="free" departSpeed="max" id="16233" type="HV">
		<route edges="genE296 genE317"/>
	</vehicle>
	<vehicle depart="90.43" departLane="free" departSpeed="max" id="16319" type="HV">
		<route edges="genE316 genE297"/>
	</vehicle>
	<vehicle depart="94.52" departLane="free" departSpeed="max" id="15495" type="HV">
		<route edges="genE318 genE297"/>
	</vehicle>
	<vehicle depart="101.99" departLane="free" departSpeed="max" id="16204" type="HV">
		<route edges="genE296 genE317"/>
	</vehicle>
	<vehicle depart="103.51" departLane="free" departSpeed="max" id="15595" type="HV">
		<route edges="genE318 genE307"/>
	</vehicle>
	<vehicle depart="103.64" departLane="free" departSpeed="max" id="16455" type="HV">
		<route edges="genE316 genE297"/>
	</vehicle>
	<vehicle depart="105.54" departLane="free" departSpeed="max" id="16434" type="HV">
		<route edges="genE316 genE297"/>
	</vehicle>
	<vehicle depart="105.59" departLane="free" departSpeed="max" id="16454" type="HV">
		<route edges="genE316 genE297"/>
	</vehicle>
	<vehicle depart="107.55" departLane="free" departSpeed="max" id="15902" type="HV">
		<route edges="genE296 genE307"/>
	</vehicle>
	<vehicle depart="111.59" departLane="free" departSpeed="max" id="15987" type="CV">
		<route edges="genE296 genE307"/>
	</vehicle>
	<vehicle depart="112.76" departLane="free" departSpeed="max" id="15677" type="HV">
		<route edges="genE318 genE307"/>
	</vehicle>
	<vehicle depart="114.82" departLane="free" departSpeed="max" id="15541" type="CV">
		<route edges="genE318 genE297"/>
	</vehicle>
	<vehicle depart="114.82" departLane="free" departSpeed="max" id="15724" type="HV">
		<route edges="genE318 genE307"/>
	</vehicle>
	<vehicle depart="115.2" departLane="free" departSpeed="max" id="16256" type="HV">
		<route edges="genE296 genE317"/>
	</vehicle>
	<vehicle depart="116.63" departLane="free" departSpeed="max" id="16770" type="HV">
		<route edges="genE316 genE317"/>
	</vehicle>
	<vehicle depart="116.85" departLane="free" departSpeed="max" id="16064" type="HV">
		<route edges="genE296 genE317"/>
	</vehicle>
	<vehicle depart="117.57" departLane="free" departSpeed="max" id="16172" type="HV">
		<route edges="genE296 genE317"/>
	</vehicle>
	<vehicle depart="119.0" departLane="free" departSpeed="max" id="16043" type="CV">
		<route edges="genE296 genE317"/>
	</vehicle>
	<vehicle depart="127.69" departLane="free" departSpeed="max" id="16372" type="HV">
		<route edges="genE316 genE297"/>
	</vehicle>
	<vehicle depart="130.53" departLane="free" departSpeed="max" id="16182" type="CV">
		<route edges="genE296 genE317"/>
	</vehicle>
	<vehicle depart="131.11" departLane="free" departSpeed="max" id="15498" type="HV">
		<route edges="genE318 genE297"/>
	</vehicle>
	<vehicle depart="131.35" departLane="free" departSpeed="max" id="16026" type="HV">
		<route edges="genE296 genE317"/>
	</vehicle>
	<vehicle depart="140.78" departLane="free" departSpeed="max" id="15574" type="HV">
		<route edges="genE318 genE297"/>
	</vehicle>
	<vehicle depart="145.91" departLane="free" departSpeed="max" id="15670" type="CV">
		<route edges="genE318 genE307"/>
	</vehicle>
	<vehicle depart="148.99" departLane="free" departSpeed="max" id="15610" type="HV">
		<route edges="genE318 genE307"/>
	</vehicle>
	<vehicle depart="149.24" departLane="free" departSpeed="max" id="15810" type="HV">
		<route edges="genE296 genE307"/>
	</vehicle>
	<vehicle depart="149.86" departLane="free" departSpeed="max" id="16247" type="HV">
		<route edges="genE296 genE317"/>
	</vehicle>
	<vehicle depart="150.18" departLane="free" departSpeed="max" id="16622" type="HV">
		<route edges="genE316 genE317"/>
	</vehicle>
	<vehicle depart="152.59" departLane="free" departSpeed="max" id="15659" type="CV">
		<route edges="genE318 genE307"/>
	</vehicle>
	<vehicle depart="154.98" departLane="free" departSpeed="max" id="16578" type="CV">
		<route edges="genE316 genE317"/>
	</vehicle>
	<vehicle depart="155.07" departLane="free" departSpeed="max" id="15970" type="HV">
		<route edges="genE296 genE307"/>
	</vehicle>
	<vehicle depart="157.4" departLane="free" departSpeed="max" id="15579" type="HV">
		<route edges="genE318 genE297"/>
	</vehicle>
	<vehicle depart="162.19" departLane="free" departSpeed="max" id="16008" type="HV">
		<route edges="genE296 genE307"/>
	</vehicle>
	<vehicle depart="163.47" departLane="free" departSpeed="max" id="16181" type="HV">
		<route edges="genE296 genE317"/>
	</vehicle>
	<vehicle depart="163.58" departLane="free" departSpeed="max" id="15619" type="CV">
		<route edges="genE318 genE307"/>
	</vehicle>
	<vehicle depart="164.72" departLane="free" departSpeed="max" id="15684" type="HV">
		<route edges="genE318 genE307"/>
	</vehicle>
	<vehicle depart="164.75" departLane="free" departSpeed="max" id="16700" type="HV">
		<route edges="genE316 genE317"/>
	</vehicle>
	<vehicle depart="165.93" departLane="free" departSpeed="max" id="16460" type="HV">
		<route edges="genE316 genE297"/>
	</vehicle>
	<vehicle depart="166.27" departLane="free" departSpeed="max" id="16596" type="HV">
		<route edges="genE316 genE317"/>
	</vehicle>
	<vehicle depart="166.54" departLane="free" departSpeed="max" id="16281" type="HV">
		<route edges="genE296 genE317"/>
	</vehicle>
	<vehicle depart="166.58" departLane="free" departSpeed="max" id="16630" type="HV">
		<route edges="genE316 genE317"/>
	</vehicle>
	<vehicle depart="172.64" departLane="free" departSpeed="max" id="16407" type="CV">
		<route edges="genE316 genE297"/>
	</vehicle>
	<vehicle depart="180.92" departLane="free" departSpeed="max" id="16399" type="HV">
		<route edges="genE316 genE297"/>
	</vehicle>
	<vehicle depart="183.89" departLane="free" departSpeed="max" id="16023" type="HV">
		<route edges="genE296 genE317"/>
	</vehicle>
	<vehicle depart="185.93" departLane="free" departSpeed="max" id="16312" type="HV">
		<route edges="genE316 genE297"/>
	</vehicle>
	<vehicle depart="187.9" departLane="free" departSpeed="max" id="16748" type="CV">
		<route edges="genE316 genE317"/>
	</vehicle>
	<vehicle depart="188.07" departLane="free" departSpeed="max" id="15723" type="CV">
		<route edges="genE318 genE307"/>
	</vehicle>
	<vehicle depart="189.34" departLane="free" departSpeed="max" id="15504" type="CV">
		<route edges="genE318 genE297"/>
	</vehicle>
	<vehicle depart="189.49" departLane="free" departSpeed="max" id="15546" type="CV">
		<route edges="genE318 genE297"/>
	</vehicle>
	<vehicle depart="189.62" departLane="free" departSpeed="max" id="16647" type="HV">
		<route edges="genE316 genE317"/>
	</vehicle>
	<vehicle depart="201.39" departLane="free" departSpeed="max" id="15905" type="HV">
		<route edges="genE296 genE307"/>
	</vehicle>
	<vehicle depart="203.73" departLane="free" departSpeed="max" id="15779" type="HV">
		<route edges="genE318 genE307"/>
	</vehicle>
	<vehicle depart="205.82" departLane="free" departSpeed="max" id="15608" type="HV">
		<route edges="genE318 genE307"/>
	</vehicle>
	<vehicle depart="212.88" departLane="free" departSpeed="max" id="16177" type="HV">
		<route edges="genE296 genE317"/>
	</vehicle>
	<vehicle depart="213.01" departLane="free" departSpeed="max" id="15818" type="HV">
		<route edges="genE296 genE307"/>
	</vehicle>
	<vehicle depart="215.94" departLane="free" departSpeed="max" id="16338" type="HV">
		<route edges="genE316 genE297"/>
	</vehicle>
	<vehicle depart="216.98" departLane="free" departSpeed="max" id="15922" type="HV">
		<route edges="genE296 genE307"/>
	</vehicle>
	<vehicle depart="220.74" departLane="free" departSpeed="max" id="15935" type="HV">
		<route edges="genE296 genE307"/>
	</vehicle>
	<vehicle depart="221.39" departLane="free" departSpeed="max" id="16764" type="HV">
		<route edges="genE316 genE317"/>
	</vehicle>
	<vehicle depart="222.92" departLane="free" departSpeed="max" id="15893" type="HV">
		<route edges="genE296 genE307"/>
	</vehicle>
	<vehicle depart="223.7" departLane="free" departSpeed="max" id="16322" type="CV">
		<route edges="genE316 genE297"/>
	</vehicle>
	<vehicle depart="224.37" departLane="free" departSpeed="max" id="15894" type="HV">
		<route edges="genE296 genE307"/>
	</vehicle>
	<vehicle depart="224.83" departLane="free" departSpeed="max" id="16483" type="HV">
		<route edges="genE316 genE297"/>
	</vehicle>
	<vehicle depart="225.43" departLane="free" departSpeed="max" id="15771" type="CV">
		<route edges="genE318 genE307"/>
	</vehicle>
	<vehicle depart="226.07" departLane="free" departSpeed="max" id="15602" type="HV">
		<route edges="genE318 genE307"/>
	</vehicle>
	<vehicle depart="236.0" departLane="free" departSpeed="max" id="15740" type="HV">
		<route edges="genE318 genE307"/>
	</vehicle>
	<vehicle depart="241.89" departLane="free" departSpeed="max" id="16168" type="HV">
		<route edges="genE296 genE317"/>
	</vehicle>
	<vehicle depart="243.06" departLane="free" departSpeed="max" id="16531" type="HV">
		<route edges="genE316 genE297"/>
	</vehicle>
	<vehicle depart="246.46" departLane="free" departSpeed="max" id="15920" type="HV">
		<route edges="genE296 genE307"/>
	</vehicle>
	<vehicle depart="251.89" departLane="free" departSpeed="max" id="16527" type="HV">
		<route edges="genE316 genE297"/>
	</vehicle>
	<vehicle depart="255.49" departLane="free" departSpeed="max" id="16753" type="HV">
		<route edges="genE316 genE317"/>
	</vehicle>
	<vehicle depart="258.68" departLane="free" departSpeed="max" id="16487" type="HV">
		<route edges="genE316 genE297"/>
	</vehicle>
	<vehicle depart="258.81" departLane="free" departSpeed="max" id="16595" type="HV">
		<route edges="genE316 genE317"/>
	</vehicle>
	<vehicle depart="262.51" departLane="free" departSpeed="max" id="16480" type="HV">
		<route edges="genE316 genE297"/>
	</vehicle>
	<vehicle depart="262.67" departLane="free" departSpeed="max" id="15616" type="HV">
		<route edges="genE318 genE307"/>
	</vehicle>
	<vehicle depart="262.9" departLane="free" departSpeed="max" id="15820" type="CV">
		<route edges="genE296 genE307"/>
	</vehicle>
	<vehicle depart="264.52" departLane="free" departSpeed="max" id="15798" type="HV">
		<route edges="genE296 genE307"/>
	</vehicle>
	<vehicle depart="268.55" departLane="free" departSpeed="max" id="16359" type="CV">
		<route edges="genE316 genE297"/>
	</vehicle>
	<vehicle depart="270.07" departLane="free" departSpeed="max" id="15799" type="HV">
		<route edges="genE296 genE307"/>
	</vehicle>
	<vehicle depart="271.89" departLane="free" departSpeed="max" id="15932" type="HV">
		<route edges="genE296 genE307"/>
	</vehicle>
	<vehicle depart="274.7" departLane="free" departSpeed="max" id="16169" type="HV">
		<route edges="genE296 genE317"/>
	</vehicle>
	<vehicle depart="276.42" departLane="free" departSpeed="max" id="15512" type="CV">
		<route edges="genE318 genE297"/>
	</vehicle>
	<vehicle depart="295.55" departLane="free" departSpeed="max" id="16538" type="HV">
		<route edges="genE316 genE297"/>
	</vehicle>
	<vehicle depart="297.96" departLane="free" departSpeed="max" id="15549" type="HV">
		<route edges="genE318 genE297"/>
	</vehicle>
	<vehicle depart="303.94" departLane="free" departSpeed="max" id="15614" type="HV">
		<route edges="genE318 genE307"/>
	</vehicle>
	<vehicle depart="306.41" departLane="free" departSpeed="max" id="15689" type="HV">
		<route edges="genE318 genE307"/>
	</vehicle>
	<vehicle depart="306.72" departLane="free" departSpeed="max" id="16598" type="CV">
		<route edges="genE316 genE317"/>
	</vehicle>
	<vehicle depart="313.6" departLane="free" departSpeed="max" id="15676" type="HV">
		<route edges="genE318 genE307"/>
	</vehicle>
	<vehicle depart="316.49" departLane="free" departSpeed="max" id="16152" type="CV">
		<route edges="genE296 genE317"/>
	</vehicle>
	<vehicle depart="317.21" departLane="free" departSpeed="max" id="16680" type="HV">
		<route edges="genE316 genE317"/>
	</vehicle>
	<vehicle depart="317.26" departLane="free" departSpeed="max" id="15862" type="HV">
		<route edges="genE296 genE307"/>
	</vehicle>
	<vehicle depart="317.31" departLane="free" departSpeed="max" id="16097" type="CV">
		<route edges="genE296 genE317"/>
	</vehicle>
	<vehicle depart="318.31" departLane="free" departSpeed="max" id="15611" type="HV">
		<route edges="genE318 genE307"/>
	</vehicle>
	<vehicle depart="322.61" departLane="free" departSpeed="max" id="16624" type="HV">
		<route edges="genE316 genE317"/>
	</vehicle>
	<vehicle depart="323.81" departLane="free" departSpeed="max" id="16587" type="HV">
		<route edges="genE316 genE317"/>
	</vehicle>
	<vehicle depart="325.8" departLane="free" departSpeed="max" id="16475" type="HV">
		<route edges="genE316 genE297"/>
	</vehicle>
	<vehicle depart="329.94" departLane="free" departSpeed="max" id="16686" type="HV">
		<route edges="genE316 genE317"/>
	</vehicle>
	<vehicle depart="334.5" departLane="free" departSpeed="max" id="15547" type="HV">
		<route edges="genE318 genE297"/>
	</vehicle>
	<vehicle depart="335.38" departLane="free" departSpeed="max" id="15772" type="HV">
		<route edges="genE318 genE307"/>
	</vehicle>
	<vehicle depart="338.57" departLane="free" departSpeed="max" id="16390" type="HV">
		<route edges="genE316 genE297"/>
	</vehicle>
	<vehicle depart="341.6" departLane="free" departSpeed="max" id="15959" type="HV">
		<route edges="genE296 genE307"/>
	</vehicle>
	<vehicle depart="341.62" departLane="free" departSpeed="max" id="16451" type="HV">
		<route edges="genE316 genE297"/>
	</vehicle>
	<vehicle depart="347.48" departLane="free" departSpeed="max" id="16250" type="CV">
		<route edges="genE296 genE317"/>
	</vehicle>
	<vehicle depart="348.5" departLane="free" departSpeed="max" id="15732" type="HV">
		<route edges="genE318 genE307"/>
	</vehicle>
	<vehicle depart="348.67" departLane="free" departSpeed="max" id="16353" type="CV">
		<route edges="genE316 genE297"/>
	</vehicle>
	<vehicle depart="354.19" departLane="free" departSpeed="max" id="16765" type="HV">
		<route edges="genE316 genE317"/>
	</vehicle>
	<vehicle depart="357.3" departLane="free" departSpeed="max" id="16102" type="CV">
		<route edges="genE296 genE317"/>
	</vehicle>
	<vehicle depart="360.08" departLane="free" departSpeed="max" id="16374" type="HV">
		<route edges="genE316 genE297"/>
	</vehicle>
	<vehicle depart="365.45" departLane="free" departSpeed="max" id="15548" type="HV">
		<route edges="genE318 genE297"/>
	</vehicle>
	<vehicle depart="366.19" departLane="free" departSpeed="max" id="15854" type="HV">
		<route edges="genE296 genE307"/>
	</vehicle>
	<vehicle depart="367.73" departLane="free" departSpeed="max" id="16652" type="HV">
		<route edges="genE316 genE317"/>
	</vehicle>
	<vehicle depart="371.63" departLane="free" departSpeed="max" id="16249" type="HV">
		<route edges="genE296 genE317"/>
	</vehicle>
	<vehicle depart="371.76" departLane="free" departSpeed="max" id="16569" type="CV">
		<route edges="genE316 genE317"/>
	</vehicle>
	<vehicle depart="376.07" departLane="free" departSpeed="max" id="15873" type="HV">
		<route edges="genE296 genE307"/>
	</vehicle>
	<vehicle depart="376.31" departLane="free" departSpeed="max" id="16660" type="HV">
		<route edges="genE316 genE317"/>
	</vehicle>
	<vehicle depart="380.74" departLane="free" departSpeed="max" id="15892" type="HV">
		<route edges="genE296 genE307"/>
	</vehicle>
	<vehicle depart="383.84" departLane="free" departSpeed="max" id="15978" type="HV">
		<route edges="genE296 genE307"/>
	</vehicle>
	<vehicle depart="389.89" departLane="free" departSpeed="max" id="15839" type="HV">
		<route edges="genE296 genE307"/>
	</vehicle>
	<vehicle depart="390.81" departLane="free" departSpeed="max" id="16147" type="HV">
		<route edges="genE296 genE317"/>
	</vehicle>
	<vehicle depart="394.76" departLane="free" departSpeed="max" id="15903" type="CV">
		<route edges="genE296 genE307"/>
	</vehicle>
	<vehicle depart="395.36" departLane="free" departSpeed="max" id="16356" type="HV">
		<route edges="genE316 genE297"/>
	</vehicle>
	<vehicle depart="400.35" departLane="free" departSpeed="max" id="15618" type="HV">
		<route edges="genE318 genE307"/>
	</vehicle>
	<vehicle depart="403.39" departLane="free" departSpeed="max" id="16291" type="HV">
		<route edges="genE316 genE297"/>
	</vehicle>
	<vehicle depart="404.43" departLane="free" departSpeed="max" id="16310" type="HV">
		<route edges="genE316 genE297"/>
	</vehicle>
	<vehicle depart="414.53" departLane="free" departSpeed="max" id="16146" type="HV">
		<route edges="genE296 genE317"/>
	</vehicle>
	<vehicle depart="421.31" departLane="free" departSpeed="max" id="16307" type="HV">
		<route edges="genE316 genE297"/>
	</vehicle>
	<vehicle depart="423.75" departLane="free" departSpeed="max" id="15807" type="HV">
		<route edges="genE296 genE307"/>
	</vehicle>
	<vehicle depart="425.48" departLane="free" departSpeed="max" id="15592" type="CV">
		<route edges="genE318 genE307"/>
	</vehicle>
	<vehicle depart="430.4" departLane="free" departSpeed="max" id="16556" type="HV">
		<route edges="genE316 genE297"/>
	</vehicle>
	<vehicle depart="434.39" departLane="free" departSpeed="max" id="16705" type="HV">
		<route edges="genE316 genE317"/>
	</vehicle>
	<vehicle depart="435.24" departLane="free" departSpeed="max" id="15719" type="HV">
		<route edges="genE318 genE307"/>
	</vehicle>
	<vehicle depart="436.43" departLane="free" departSpeed="max" id="16394" type="HV">
		<route edges="genE316 genE297"/>
	</vehicle>
	<vehicle depart="438.11" departLane="free" departSpeed="max" id="16721" type="HV">
		<route edges="genE316 genE317"/>
	</vehicle>
	<vehicle depart="439.04" departLane="free" departSpeed="max" id="15850" type="HV">
		<route edges="genE296 genE307"/>
	</vehicle>
	<vehicle depart="440.61" departLane="free" departSpeed="max" id="16207" type="HV">
		<route edges="genE296 genE317"/>
	</vehicle>
	<vehicle depart="442.04" departLane="free" departSpeed="max" id="16352" type="HV">
		<route edges="genE316 genE297"/>
	</vehicle>
	<vehicle depart="444.51" departLane="free" departSpeed="max" id="16219" type="HV">
		<route edges="genE296 genE317"/>
	</vehicle>
	<vehicle depart="445.85" departLane="free" departSpeed="max" id="16208" type="HV">
		<route edges="genE296 genE317"/>
	</vehicle>
	<vehicle depart="447.85" departLane="free" departSpeed="max" id="15675" type="HV">
		<route edges="genE318 genE307"/>
	</vehicle>
	<vehicle depart="450.94" departLane="free" departSpeed="max" id="16037" type="HV">
		<route edges="genE296 genE317"/>
	</vehicle>
	<vehicle depart="451.74" departLane="free" departSpeed="max" id="16080" type="CV">
		<route edges="genE296 genE317"/>
	</vehicle>
	<vehicle depart="455.85" departLane="free" departSpeed="max" id="16236" type="HV">
		<route edges="genE296 genE317"/>
	</vehicle>
	<vehicle depart="458.91" departLane="free" departSpeed="max" id="15503" type="HV">
		<route edges="genE318 genE297"/>
	</vehicle>
	<vehicle depart="461.6" departLane="free" departSpeed="max" id="16574" type="HV">
		<route edges="genE316 genE317"/>
	</vehicle>
	<vehicle depart="464.01" departLane="free" departSpeed="max" id="16160" type="CV">
		<route edges="genE296 genE317"/>
	</vehicle>
	<vehicle depart="464.75" departLane="free" departSpeed="max" id="16150" type="HV">
		<route edges="genE296 genE317"/>
	</vehicle>
	<vehicle depart="470.9" departLane="free" departSpeed="max" id="16412" type="CV">
		<route edges="genE316 genE297"/>
	</vehicle>
	<vehicle depart="472.28" departLane="free" departSpeed="max" id="15746" type="HV">
		<route edges="genE318 genE307"/>
	</vehicle>
	<vehicle depart="472.67" departLane="free" departSpeed="max" id="16727" type="HV">
		<route edges="genE316 genE317"/>
	</vehicle>
	<vehicle depart="475.05" departLane="free" departSpeed="max" id="16541" type="CV">
		<route edges="genE316 genE297"/>
	</vehicle>
	<vehicle depart="478.62" departLane="free" departSpeed="max" id="16201" type="HV">
		<route edges="genE296 genE317"/>
	</vehicle>
	<vehicle depart="481.32" departLane="free" departSpeed="max" id="15651" type="CV">
		<route edges="genE318 genE307"/>
	</vehicle>
	<vehicle depart="485.0" departLane="free" departSpeed="max" id="16258" type="HV">
		<route edges="genE296 genE317"/>
	</vehicle>
	<vehicle depart="488.51" departLane="free" departSpeed="max" id="15644" type="HV">
		<route edges="genE318 genE307"/>
	</vehicle>
	<vehicle depart="491.57" departLane="free" departSpeed="max" id="15556" type="CV">
		<route edges="genE318 genE297"/>
	</vehicle>
	<vehicle depart="497.79" departLane="free" departSpeed="max" id="15925" type="CV">
		<route edges="genE296 genE307"/>
	</vehicle>
	<vehicle depart="499.43" departLane="free" departSpeed="max" id="16461" type="HV">
		<route edges="genE316 genE297"/>
	</vehicle>
	<vehicle depart="499.44" departLane="free" departSpeed="max" id="15882" type="HV">
		<route edges="genE296 genE307"/>
	</vehicle>
	<vehicle depart="510.24" departLane="free" departSpeed="max" id="16690" type="HV">
		<route edges="genE316 genE317"/>
	</vehicle>
	<vehicle depart="510.49" departLane="free" departSpeed="max" id="16122" type="HV">
		<route edges="genE296 genE317"/>
	</vehicle>
	<vehicle depart="515.07" departLane="free" departSpeed="max" id="15825" type="HV">
		<route edges="genE296 genE307"/>
	</vehicle>
	<vehicle depart="515.13" departLane="free" departSpeed="max" id="16754" type="HV">
		<route edges="genE316 genE317"/>
	</vehicle>
	<vehicle depart="516.83" departLane="free" departSpeed="max" id="15511" type="HV">
		<route edges="genE318 genE297"/>
	</vehicle>
	<vehicle depart="520.3" departLane="free" departSpeed="max" id="16059" type="HV">
		<route edges="genE296 genE317"/>
	</vehicle>
	<vehicle depart="520.77" departLane="free" departSpeed="max" id="16241" type="HV">
		<route edges="genE296 genE317"/>
	</vehicle>
	<vehicle depart="521.92" departLane="free" departSpeed="max" id="16772" type="HV">
		<route edges="genE316 genE317"/>
	</vehicle>
	<vehicle depart="527.39" departLane="free" departSpeed="max" id="16030" type="HV">
		<route edges="genE296 genE317"/>
	</vehicle>
	<vehicle depart="531.23" departLane="free" departSpeed="max" id="15568" type="HV">
		<route edges="genE318 genE297"/>
	</vehicle>
	<vehicle depart="534.38" departLane="free" departSpeed="max" id="16104" type="HV">
		<route edges="genE296 genE317"/>
	</vehicle>
	<vehicle depart="538.35" departLane="free" departSpeed="max" id="15863" type="HV">
		<route edges="genE296 genE307"/>
	</vehicle>
	<vehicle depart="538.91" departLane="free" departSpeed="max" id="16579" type="HV">
		<route edges="genE316 genE317"/>
	</vehicle>
	<vehicle depart="542.81" departLane="free" departSpeed="max" id="15720" type="HV">
		<route edges="genE318 genE307"/>
	</vehicle>
	<vehicle depart="544.27" departLane="free" departSpeed="max" id="15836" type="HV">
		<route edges="genE296 genE307"/>
	</vehicle>
	<vehicle depart="551.18" departLane="free" departSpeed="max" id="15948" type="HV">
		<route edges="genE296 genE307"/>
	</vehicle>
	<vehicle depart="554.5" departLane="free" departSpeed="max" id="16055" type="HV">
		<route edges="genE296 genE317"/>
	</vehicle>
	<vehicle depart="554.94" departLane="free" departSpeed="max" id="15552" type="HV">
		<route edges="genE318 genE297"/>
	</vehicle>
	<vehicle depart="555.08" departLane="free" departSpeed="max" id="15741" type="HV">
		<route edges="genE318 genE307"/>
	</vehicle>
	<vehicle depart="557.25" departLane="free" departSpeed="max" id="15734" type="HV">
		<route edges="genE318 genE307"/>
	</vehicle>
	<vehicle depart="559.61" departLane="free" departSpeed="max" id="15773" type="CV">
		<route edges="genE318 genE307"/>
	</vehicle>
	<vehicle depart="564.62" departLane="free" departSpeed="max" id="16603" type="HV">
		<route edges="genE316 genE317"/>
	</vehicle>
	<vehicle depart="570.64" departLane="free" departSpeed="max" id="15718" type="CV">
		<route edges="genE318 genE307"/>
	</vehicle>
	<vehicle depart="571.65" departLane="free" departSpeed="max" id="16762" type="HV">
		<route edges="genE316 genE317"/>
	</vehicle>
	<vehicle depart="571.95" departLane="free" departSpeed="max" id="15633" type="CV">
		<route edges="genE318 genE307"/>
	</vehicle>
	<vehicle depart="575.69" departLane="free" departSpeed="max" id="16714" type="CV">
		<route edges="genE316 genE317"/>
	</vehicle>
	<vehicle depart="576.14" departLane="free" departSpeed="max" id="15569" type="HV">
		<route edges="genE318 genE297"/>
	</vehicle>
	<vehicle depart="576.34" departLane="free" departSpeed="max" id="16325" type="HV">
		<route edges="genE316 genE297"/>
	</vehicle>
	<vehicle depart="580.74" departLane="free" departSpeed="max" id="16389" type="HV">
		<route edges="genE316 genE297"/>
	</vehicle>
	<vehicle depart="583.79" departLane="free" departSpeed="max" id="16568" type="HV">
		<route edges="genE316 genE317"/>
	</vehicle>
	<vehicle depart="588.18" departLane="free" departSpeed="max" id="15840" type="HV">
		<route edges="genE296 genE307"/>
	</vehicle>
	<vehicle depart="588.66" departLane="free" departSpeed="max" id="15849" type="HV">
		<route edges="genE296 genE307"/>
	</vehicle>
	<vehicle depart="588.94" departLane="free" departSpeed="max" id="16663" type="HV">
		<route edges="genE316 genE317"/>
	</vehicle>
	<vehicle depart="592.27" departLane="free" departSpeed="max" id="15980" type="HV">
		<route edges="genE296 genE307"/>
	</vehicle>
	<vehicle depart="593.59" departLane="free" departSpeed="max" id="15551" type="HV">
		<route edges="genE318 genE297"/>
	</vehicle>
	<vehicle depart="597.33" departLane="free" departSpeed="max" id="15945" type="HV">
		<route edges="genE296 genE307"/>
	</vehicle>
	<vehicle depart="598.5" departLane="free" departSpeed="max" id="16260" type="CV">
		<route edges="genE296 genE317"/>
	</vehicle>
	<vehicle depart="599.32" departLane="free" departSpeed="max" id="16121" type="HV">
		<route edges="genE296 genE317"/>
	</vehicle>
	<vehicle depart="601.69" departLane="free" departSpeed="max" id="15691" type="HV">
		<route edges="genE318 genE307"/>
	</vehicle>