<?xml version="1.0" ?>
<routes>
	<vType accel="0.8" decel="4.5" id="CV" length="5" maxSpeed="45" sigma="0.5"/>
	<vType accel="0.8" decel="4.5" id="HV" length="5" maxSpeed="40" sigma="0.5"/>
	<vehicle depart="3.2" departLane="free" departSpeed="max" id="12804" type="CV">
		<route edges="genE296 genE317"/>
	</vehicle>
	<vehicle depart="6.01" departLane="free" departSpeed="max" id="13070" type="CV">
		<route edges="genE316 genE297"/>
	</vehicle>
	<vehicle depart="7.17" departLane="free" departSpeed="max" id="12767" type="CV">
		<route edges="genE296 genE317"/>
	</vehicle>
	<vehicle depart="8.59" departLane="free" departSpeed="max" id="13258" type="HV">
		<route edges="genE316 genE317"/>
	</vehicle>
	<vehicle depart="14.05" departLane="free" departSpeed="max" id="13246" type="HV">
		<route edges="genE316 genE317"/>
	</vehicle>
	<vehicle depart="16.54" departLane="free" departSpeed="max" id="12792" type="HV">
		<route edges="genE296 genE317"/>
	</vehicle>
	<vehicle depart="20.99" departLane="free" departSpeed="max" id="12687" type="HV">
		<route edges="genE296 genE307"/>
	</vehicle>
	<vehicle depart="22.77" departLane="free" departSpeed="max" id="13095" type="HV">
		<route edges="genE316 genE297"/>
	</vehicle>
	<vehicle depart="24.38" departLane="free" departSpeed="max" id="12511" type="HV">
		<route edges="genE296 genE307"/>
	</vehicle>
	<vehicle depart="26.61" departLane="free" departSpeed="max" id="13122" type="CV">
		<route edges="genE316 genE317"/>
	</vehicle>
	<vehicle depart="28.63" departLane="free" departSpeed="max" id="13116" type="HV">
		<route edges="genE316 genE297"/>
	</vehicle>
	<vehicle depart="35.18" departLane="free" departSpeed="max" id="12604" type="HV">
		<route edges="genE296 genE307"/>
	</vehicle>
	<vehicle depart="50.87" departLane="free" departSpeed="max" id="12493" type="HV">
		<route edges="genE318 genE307"/>
	</vehicle>
	<vehicle depart="62.52" departLane="free" departSpeed="max" id="13110" type="HV">
		<route edges="genE316 genE297"/>
	</vehicle>
	<vehicle depart="62.57" departLane="free" departSpeed="max" id="12807" type="HV">
		<route edges="genE296 genE317"/>
	</vehicle>
	<vehicle depart="67.9" departLane="free" departSpeed="max" id="13192" type="HV">
		<route edges="genE316 genE317"/>
	</vehicle>
	<vehicle depart="67.92" departLane="free" departSpeed="max" id="12450" type="HV">
		<route edges="genE318 genE307"/>
	</vehicle>
	<vehicle depart="68.24" departLane="free" departSpeed="max" id="13134" type="HV">
		<route edges="genE316 genE317"/>
	</vehicle>
	<vehicle depart="70.92" departLane="free" departSpeed="max" id="12776" type="HV">
		<route edges="genE296 genE317"/>
	</vehicle>
	<vehicle depart="78.84" departLane="free" departSpeed="max" id="12451" type="HV">
		<route edges="genE318 genE307"/>
	</vehicle>
	<vehicle depart="79.19" departLane="free" departSpeed="max" id="12277" type="CV">
		<route edges="genE318 genE297"/>
	</vehicle>
	<vehicle depart="84.42" departLane="free" departSpeed="max" id="12292" type="HV">
		<route edges="genE318 genE297"/>
	</vehicle>
	<vehicle depart="84.52" departLane="free" departSpeed="max" id="12981" type="CV">
		<route edges="genE316 genE297"/>
	</vehicle>
	<vehicle depart="84.81" departLane="free" departSpeed="max" id="12987" type="HV">
		<route edges="genE316 genE297"/>
	</vehicle>
	<vehicle depart="85.19" departLane="free" departSpeed="max" id="12656" type="HV">
		<route edges="genE296 genE307"/>
	</vehicle>
	<vehicle depart="85.73" departLane="free" departSpeed="max" id="13213" type="HV">
		<route edges="genE316 genE317"/>
	</vehicle>
	<vehicle depart="86.15" departLane="free" departSpeed="max" id="12790" type="HV">
		<route edges="genE296 genE317"/>
	</vehicle>
	<vehicle depart="91.57" departLane="free" departSpeed="max" id="12287" type="HV">
		<route edges="genE318 genE297"/>
	</vehicle>
	<vehicle depart="96.43" departLane="free" departSpeed="max" id="13190" type="HV">
		<route edges="genE316 genE317"/>
	</vehicle>
	<vehicle depart="99.23" departLane="free" departSpeed="max" id="13285" type="HV">
		<route edges="genE316 genE317"/>
	</vehicle>
	<vehicle depart="99.41" departLane="free" departSpeed="max" id="12339" type="HV">
		<route edges="genE318 genE297"/>
	</vehicle>
	<vehicle depart="108.3" departLane="free" departSpeed="max" id="12334" type="HV">
		<route edges="genE318 genE297"/>
	</vehicle>
	<vehicle depart="109.59" departLane="free" departSpeed="max" id="12762" type="CV">
		<route edges="genE296 genE317"/>
	</vehicle>
	<vehicle depart="117.17" departLane="free" departSpeed="max" id="12701" type="HV">
		<route edges="genE296 genE317"/>
	</vehicle>
	<vehicle depart="117.88" departLane="free" departSpeed="max" id="13253" type="HV">
		<route edges="genE316 genE317"/>
	</vehicle>
	<vehicle depart="120.1" departLane="free" departSpeed="max" id="13282" type="CV">
		<route edges="genE316 genE317"/>
	</vehicle>
	<vehicle depart="127.62" departLane="free" departSpeed="max" id="12922" type="HV">
		<route edges="genE316 genE297"/>
	</vehicle>
	<vehicle depart="127.69" departLane="free" departSpeed="max" id="12370" type="HV">
		<route edges="genE318 genE307"/>
	</vehicle>
	<vehicle depart="132.81" departLane="free" departSpeed="max" id="12652" type="HV">
		<route edges="genE296 genE307"/>
	</vehicle>
	<vehicle depart="135.35" departLane="free" departSpeed="max" id="12575" type="HV">
		<route edges="genE296 genE307"/>
	</vehicle>
	<vehicle depart="139.67" departLane="free" departSpeed="max" id="12645" type="HV">
		<route edges="genE296 genE307"/>
	</vehicle>
	<vehicle depart="140.96" departLane="free" departSpeed="max" id="12588" type="HV">
		<route edges="genE296 genE307"/>
	</vehicle>
	<vehicle depart="154.6" departLane="free" departSpeed="max" id="13219" type="HV">
		<route edges="genE316 genE317"/>
	</vehicle>
	<vehicle depart="159.08" departLane="free" departSpeed="max" id="12626" type="CV">
		<route edges="genE296 genE307"/>
	</vehicle>
	<vehicle depart="163.3" departLane="free" departSpeed="max" id="13004" type="HV">
		<route edges="genE316 genE297"/>
	</vehicle>
	<vehicle depart="167.56" departLane="free" departSpeed="max" id="12303" type="HV">
		<route edges="genE318 genE297"/>
	</vehicle>
	<vehicle depart="168.18" departLane="free" departSpeed="max" id="13138" type="CV">
		<route edges="genE316 genE317"/>
	</vehicle>
	<vehicle depart="169.48" departLane="free" departSpeed="max" id="13057" type="HV">
		<route edges="genE316 genE297"/>
	</vehicle>
	<vehicle depart="172.15" departLane="free" departSpeed="max" id="12631" type="HV">
		<route edges="genE296 genE307"/>
	</vehicle>
	<vehicle depart="174.57" departLane="free" departSpeed="max" id="12866" type="HV">
		<route edges="genE296 genE317"/>
	</vehicle>
	<vehicle depart="176.38" departLane="free" departSpeed="max" id="12297" type="HV">
		<route edges="genE318 genE297"/>
	</vehicle>
	<vehicle depart="177.53" departLane="free" departSpeed="max" id="12313" type="HV">
		<route edges="genE318 genE297"/>
	</vehicle>
	<vehicle depart="179.25" departLane="free" departSpeed="max" id="13255" type="CV">
		<route edges="genE316 genE317"/>
	</vehicle>
	<vehicle depart="180.25" departLane="free" departSpeed="max" id="12431" type="HV">
		<route edges="genE318 genE307"/>
	</vehicle>
	<vehicle depart="180.63" departLane="free" departSpeed="max" id="12628" type="HV">
		<route edges="genE296 genE307"/>
	</vehicle>
	<vehicle depart="183.25" departLane="free" departSpeed="max" id="12841" type="HV">
		<route edges="genE296 genE317"/>
	</vehicle>
	<vehicle depart="183.99" departLane="free" departSpeed="max" id="12598" type="HV">
		<route edges="genE296 genE307"/>
	</vehicle>
	<vehicle depart="185.44" departLane="free" departSpeed="max" id="12926" type="HV">
		<route edges="genE316 genE297"/>
	</vehicle>
	<vehicle depart="187.75" departLane="free" departSpeed="max" id="13221" type="HV">
		<route edges="genE316 genE317"/>
	</vehicle>
	<vehicle depart="188.95" departLane="free" departSpeed="max" id="13158" type="HV">
		<route edges="genE316 genE317"/>
	</vehicle>
	<vehicle depart="190.87" departLane="free" departSpeed="max" id="12770" type="HV">
		<route edges="genE296 genE317"/>
	</vehicle>
	<vehicle depart="192.61" departLane="free" departSpeed="max" id="12478" type="HV">
		<route edges="genE318 genE307"/>
	</vehicle>
	<vehicle depart="200.96" departLane="free" departSpeed="max" id="12343" type="HV">
		<route edges="genE318 genE297"/>
	</vehicle>
	<vehicle depart="205.67" departLane="free" departSpeed="max" id="13041" type="HV">
		<route edges="genE316 genE297"/>
	</vehicle>
	<vehicle depart="207.39" departLane="free" departSpeed="max" id="12345" type="HV">
		<route edges="genE318 genE307"/>
	</vehicle>
	<vehicle depart="208.9" departLane="free" departSpeed="max" id="13156" type="HV">
		<route edges="genE316 genE317"/>
	</vehicle>
	<vehicle depart="211.98" departLane="free" departSpeed="max" id="13144" type="HV">
		<route edges="genE316 genE317"/>
	</vehicle>
	<vehicle depart="212.73" departLane="free" departSpeed="max" id="12530" type="HV">
		<route edges="genE296 genE307"/>
	</vehicle>
	<vehicle depart="213.55" departLane="free" departSpeed="max" id="12406" type="HV">
		<route edges="genE318 genE307"/>
	</vehicle>
	<vehicle depart="217.65" departLane="free" departSpeed="max" id="12504" type="HV">
		<route edges="genE296 genE307"/>
	</vehicle>
	<vehicle depart="218.48" departLane="free" departSpeed="max" id="12699" type="HV">
		<route edges="genE296 genE317"/>
	</vehicle>
	<vehicle depart="224.78" departLane="free" departSpeed="max" id="13094" type="HV">
		<route edges="genE316 genE297"/>
	</vehicle>
	<vehicle depart="232.13" departLane="free" departSpeed="max" id="12910" type="HV">
		<route edges="genE316 genE297"/>
	</vehicle>
	<vehicle depart="237.34" departLane="free" departSpeed="max" id="12721" type="HV">
		<route edges="genE296 genE317"/>
	</vehicle>
	<vehicle depart="240.65" departLane="free" departSpeed="max" id="12775" type="HV">
		<route edges="genE296 genE317"/>
	</vehicle>
	<vehicle depart="242.93" departLane="free" departSpeed="max" id="13099" type="HV">
		<route edges="genE316 genE297"/>
	</vehicle>
	<vehicle depart="248.42" departLane="free" departSpeed="max" id="12445" type="HV">
		<route edges="genE318 genE307"/>
	</vehicle>
	<vehicle depart="260.54" departLane="free" departSpeed="max" id="13016" type="HV">
		<route edges="genE316 genE297"/>
	</vehicle>
	<vehicle depart="262.15" departLane="free" departSpeed="max" id="13230" type="HV">
		<route edges="genE316 genE317"/>
	</vehicle>
	<vehicle depart="264.8" departLane="free" departSpeed="max" id="12800" type="CV">
		<route edges="genE296 genE317"/>
	</vehicle>
	<vehicle depart="269.82" departLane="free" departSpeed="max" id="12407" type="HV">
		<route edges="genE318 genE307"/>
	</vehicle>
	<vehicle depart="273.75" departLane="free" departSpeed="max" id="12653" type="HV">
		<route edges="genE296 genE307"/>
	</vehicle>
	<vehicle depart="280.1" departLane="free" departSpeed="max" id="12414" type="HV">
		<route edges="genE318 genE307"/>
	</vehicle>
	<vehicle depart="284.23" departLane="free" departSpeed="max" id="13183" type="HV">
		<route edges="genE316 genE317"/>
	</vehicle>
	<vehicle depart="284.3" departLane="free" departSpeed="max" id="12958" type="HV">
		<route edges="genE316 genE297"/>
	</vehicle>
	<vehicle depart="284.42" departLane="free" departSpeed="max" id="13115" type="HV">
		<route edges="genE316 genE297"/>
	</vehicle>
	<vehicle depart="292.69" departLane="free" departSpeed="max" id="13140" type="HV">
		<route edges="genE316 genE317"/>
	</vehicle>
	<vehicle depart="299.17" departLane="free" departSpeed="max" id="12285" type="HV">
		<route edges="genE318 genE297"/>
	</vehicle>
	<vehicle depart="304.68" departLane="free" departSpeed="max" id="12786" type="HV">
		<route edges="genE296 genE317"/>
	</vehicle>
	<vehicle depart="310.07" departLane="free" departSpeed="max" id="12972" type="HV">
		<route edges="genE316 genE297"/>
	</vehicle>
	<vehicle depart="311.99" departLane="free" departSpeed="max" id="12443" type="HV">
		<route edges="genE318 genE307"/>
	</vehicle>
	<vehicle depart="312.83" departLane="free" departSpeed="max" id="13225" type="CV">
		<route edges="genE316 genE317"/>
	</vehicle>
	<vehicle depart="314.38" departLane="free" departSpeed="max" id="12852" type="HV">
		<route edges="genE296 genE317"/>
	</vehicle>
	<vehicle depart="316.83" departLane="free" departSpeed="max" id="12391" type="HV">
		<route edges="genE318 genE307"/>
	</vehicle>
	<vehicle depart="318.07" departLane="free" departSpeed="max" id="13005" type="HV">
		<route edges="genE316 genE297"/>
	</vehicle>
	<vehicle depart="323.73" departLane="free" departSpeed="max" id="13260" type="HV">
		<route edges="genE316 genE317"/>
	</vehicle>
	<vehicle depart="326.11" departLane="free" departSpeed="max" id="13232" type="HV">
		<route edges="genE316 genE317"/>
	</vehicle>
	<vehicle depart="327.09" departLane="free" departSpeed="max" id="12881" type="HV">
		<route edges="genE296 genE317"/>
	</vehicle>
	<vehicle depart="328.62" departLane="free" departSpeed="max" id="12521" type="HV">
		<route edges="genE296 genE307"/>
	</vehicle>
	<vehicle depart="328.64" departLane="free" departSpeed="max" id="12380" type="CV">
		<route edges="genE318 genE307"/>
	</vehicle>
	<vehicle depart="332.23" departLane="free" departSpeed="max" id="12421" type="HV">
		<route edges="genE318 genE307"/>
	</vehicle>
	<vehicle depart="334.65" departLane="free" departSpeed="max" id="12617" type="CV">
		<route edges="genE296 genE307"/>
	</vehicle>
	<vehicle depart="336.43" departLane="free" departSpeed="max" id="12985" type="HV">
		<route edges="genE316 genE297"/>
	</vehicle>
	<vehicle depart="336.53" departLane="free" departSpeed="max" id="12698" type="CV">
		<route edges="genE296 genE317"/>
	</vehicle>
	<vehicle depart="337.69" departLane="free" departSpeed="max" id="12468" type="HV">
		<route edges="genE318 genE307"/>
	</vehicle>
	<vehicle depart="339.99" departLane="free" departSpeed="max" id="12332" type="HV">
		<route edges="genE318 genE297"/>
	</vehicle>
	<vehicle depart="344.01" departLane="free" departSpeed="max" id="13153" type="HV">
		<route edges="genE316 genE317"/>
	</vehicle>
	<vehicle depart="348.98" departLane="free" departSpeed="max" id="13096" type="CV">
		<route edges="genE316 genE297"/>
	</vehicle>
	<vehicle depart="349.62" departLane="free" departSpeed="max" id="13019" type="HV">
		<route edges="genE316 genE297"/>
	</vehicle>
	<vehicle depart="354.43" departLane="free" departSpeed="max" id="12710" type="HV">
		<route edges="genE296 genE317"/>
	</vehicle>
	<vehicle depart="354.45" departLane="free" departSpeed="max" id="12294" type="HV">
		<route edges="genE318 genE297"/>
	</vehicle>
	<vehicle depart="358.79" departLane="free" departSpeed="max" id="12463" type="CV">
		<route edges="genE318 genE307"/>
	</vehicle>
	<vehicle depart="359.24" departLane="free" departSpeed="max" id="12696" type="HV">
		<route edges="genE296 genE317"/>
	</vehicle>
	<vehicle depart="359.66" departLane="free" departSpeed="max" id="12585" type="HV">
		<route edges="genE296 genE307"/>
	</vehicle>
	<vehicle depart="363.21" departLane="free" departSpeed="max" id="13017" type="HV">
		<route edges="genE316 genE297"/>
	</vehicle>
	<vehicle depart="365.33" departLane="free" departSpeed="max" id="13081" type="HV">
		<route edges="genE316 genE297"/>
	</vehicle>
	<vehicle depart="365.44" departLane="free" departSpeed="max" id="12284" type="CV">
		<route edges="genE318 genE297"/>
	</vehicle>
	<vehicle depart="368.02" departLane="free" departSpeed="max" id="12834" type="HV">
		<route edges="genE296 genE317"/>
	</vehicle>
	<vehicle depart="375.31" departLane="free" departSpeed="max" id="12928" type="HV">
		<route edges="genE316 genE297"/>
	</vehicle>
	<vehicle depart="376.25" departLane="free" departSpeed="max" id="13248" type="HV">
		<route edges="genE316 genE317"/>
	</vehicle>
	<vehicle depart="378.13" departLane="free" departSpeed="max" id="12965" type="HV">
		<route edges="genE316 genE297"/>
	</vehicle>
	<vehicle depart="378.76" departLane="free" departSpeed="max" id="12586" type="HV">
		<route edges="genE296 genE307"/>
	</vehicle>
	<vehicle depart="379.24" departLane="free" departSpeed="max" id="13079" type="HV">
		<route edges="genE316 genE297"/>
	</vehicle>
	<vehicle depart="385.65" departLane="free" departSpeed="max" id="13034" type="HV">
		<route edges="genE316 genE297"/>
	</vehicle>
	<vehicle depart="388.51" departLane="free" departSpeed="max" id="13104" type="CV">
		<route edges="genE316 genE297"/>
	</vehicle>
	<vehicle depart="389.98" departLane="free" departSpeed="max" id="12455" type="HV">
		<route edges="genE318 genE307"/>
	</vehicle>
	<vehicle depart="391.44" departLane="free" departSpeed="max" id="13136" type="HV">
		<route edges="genE316 genE317"/>
	</vehicle>
	<vehicle depart="395.26" departLane="free" departSpeed="max" id="12607" type="HV">
		<route edges="genE296 genE307"/>
	</vehicle>
	<vehicle depart="397.36" departLane="free" departSpeed="max" id="12795" type="HV">
		<route edges="genE296 genE317"/>
	</vehicle>
	<vehicle depart="406.54" departLane="free" departSpeed="max" id="12542" type="HV">
		<route edges="genE296 genE307"/>
	</vehicle>
	<vehicle depart="408.53" departLane="free" departSpeed="max" id="12998" type="HV">
		<route edges="genE316 genE297"/>
	</vehicle>
	<vehicle depart="410.39" departLane="free" departSpeed="max" id="12892" type="HV">
		<route edges="genE296 genE317"/>
	</vehicle>
	<vehicle depart="412.18" departLane="free" departSpeed="max" id="13235" type="HV">
		<route edges="genE316 genE317"/>
	</vehicle>
	<vehicle depart="418.4" departLane="free" departSpeed="max" id="13133" type="HV">
		<route edges="genE316 genE317"/>
	</vehicle>
	<vehicle depart="419.14" departLane="free" departSpeed="max" id="13160" type="HV">
		<route edges="genE316 genE317"/>
	</vehicle>
	<vehicle depart="421.58" departLane="free" departSpeed="max" id="12724" type="HV">
		<route edges="genE296 genE317"/>
	</vehicle>
	<vehicle depart="424.64" departLane="free" departSpeed="max" id="13015" type="HV">
		<route edges="genE316 genE297"/>
	</vehicle>
	<vehicle depart="425.87" departLane="free" departSpeed="max" id="12700" type="HV">
		<route edges="genE296 genE317"/>
	</vehicle>
	<vehicle depart="428.77" departLane="free" departSpeed="max" id="12486" type="HV">
		<route edges="genE318 genE307"/>
	</vehicle>
	<vehicle depart="429.67" departLane="free" departSpeed="max" id="12392" type="HV">
		<route edges="genE318 genE307"/>
	</vehicle>
	<vehicle depart="429.96" departLane="free" departSpeed="max" id="12643" type="CV">
		<route edges="genE296 genE307"/>
	</vehicle>
	<vehicle depart="433.92" departLane="free" departSpeed="max" id="12970" type="HV">
		<route edges="genE316 genE297"/>
	</vehicle>
	<vehicle depart="434.49" departLane="free" departSpeed="max" id="13061" type="HV">
		<route edges="genE316 genE297"/>
	</vehicle>
	<vehicle depart="437.22" departLane="free" departSpeed="max" id="12613" type="CV">
		<route edges="genE296 genE307"/>
	</vehicle>
	<vehicle depart="439.05" departLane="free" departSpeed="max" id="12774" type="HV">
		<route edges="genE296 genE317"/>
	</vehicle>
	<vehicle depart="440.25" departLane="free" departSpeed="max" id="12349" type="HV">
		<route edges="genE318 genE307"/>
	</vehicle>
	<vehicle depart="440.94" departLane="free" departSpeed="max" id="12578" type="CV">
		<route edges="genE296 genE307"/>
	</vehicle>
	<vehicle depart="442.21" departLane="free" departSpeed="max" id="12581" type="HV">
		<route edges="genE296 genE307"/>
	</vehicle>
	<vehicle depart="450.81" departLane="free" departSpeed="max" id="12612" type="CV">
		<route edges="genE296 genE307"/>
	</vehicle>
	<vehicle depart="456.78" departLane="free" departSpeed="max" id="12935" type="HV">
		<route edges="genE316 genE297"/>
	</vehicle>
	<vehicle depart="457.9" departLane="free" departSpeed="max" id="12409" type="HV">
		<route edges="genE318 genE307"/>
	</vehicle>
	<vehicle depart="462.72" departLane="free" departSpeed="max" id="12488" type="HV">
		<route edges="genE318 genE307"/>
	</vehicle>
	<vehicle depart="468.09" departLane="free" departSpeed="max" id="12518" type="HV">
		<route edges="genE296 genE307"/>
	</vehicle>
	<vehicle depart="471.18" departLane="free" departSpeed="max" id="13082" type="HV">
		<route edges="genE316 genE297"/>
	</vehicle>
	<vehicle depart="471.85" departLane="free" departSpeed="max" id="12606" type="HV">
		<route edges="genE296 genE307"/>
	</vehicle>
	<vehicle depart="474.4" departLane="free" departSpeed="max" id="13030" type="HV">
		<route edges="genE316 genE297"/>
	</vehicle>
	<vehicle depart="474.43" departLane="free" departSpeed="max" id="12880" type="CV">
		<route edges="genE296 genE317"/>
	</vehicle>
	<vehicle depart="475.13" departLane="free" departSpeed="max" id="12260" type="HV">
		<route edges="genE318 genE297"/>
	</vehicle>
	<vehicle depart="479.21" departLane="free" departSpeed="max" id="12610" type="HV">
		<route edges="genE296 genE307"/>
	</vehicle>
	<vehicle depart="482.77" departLane="free" departSpeed="max" id="13244" type="HV">
		<route edges="genE316 genE317"/>
	</vehicle>
	<vehicle depart="482.92" departLane="free" departSpeed="max" id="12992" type="HV">
		<route edges="genE316 genE297"/>
	</vehicle>
	<vehicle depart="487.25" departLane="free" departSpeed="max" id="12835" type="HV">
		<route edges="genE296 genE317"/>
	</vehicle>
	<vehicle depart="491.62" departLane="free" departSpeed="max" id="12909" type="HV">
		<route edges="genE316 genE297"/>
	</vehicle>
	<vehicle depart="495.33" departLane="free" departSpeed="max" id="13240" type="HV">
		<route edges="genE316 genE317"/>
	</vehicle>
	<vehicle depart="498.25" departLane="free" departSpeed="max" id="12514" type="CV">
		<route edges="genE296 genE307"/>
	</vehicle>
	<vehicle depart="498.66" departLane="free" departSpeed="max" id="13273" type="HV">
		<route edges="genE316 genE317"/>
	</vehicle>
	<vehicle depart="499.57" departLane="free" departSpeed="max" id="13106" type="HV">
		<route edges="genE316 genE297"/>
	</vehicle>
	<vehicle depart="503.69" departLane="free" departSpeed="max" id="12410" type="HV">
		<route edges="genE318 genE307"/>
	</vehicle>
	<vehicle depart="504.29" departLane="free" departSpeed="max" id="12867" type="HV">
		<route edges="genE296 genE317"/>
	</vehicle>
	<vehicle depart="504.83" departLane="free" departSpeed="max" id="12906" type="HV">
		<route edges="genE316 genE297"/>
	</vehicle>
	<vehicle depart="506.1" departLane="free" departSpeed="max" id="12640" type="HV">
		<route edges="genE296 genE307"/>
	</vehicle>
	<vehicle depart="508.11" departLane="free" departSpeed="max" id="13102" type="HV">
		<route edges="genE316 genE297"/>
	</vehicle>
	<vehicle depart="514.72" departLane="free" departSpeed="max" id="12988" type="HV">
		<route edges="genE316 genE297"/>
	</vehicle>
	<vehicle depart="515.78" departLane="free" departSpeed="max" id="13197" type="HV">
		<route edges="genE316 genE317"/>
	</vehicle>
	<vehicle depart="517.33" departLane="free" departSpeed="max" id="12497" type="HV">
		<route edges="genE296 genE307"/>
	</vehicle>
	<vehicle depart="518.83" departLane="free" departSpeed="max" id="12378" type="HV">
		<route edges="genE318 genE307"/>
	</vehicle>
	<vehicle depart="529.0" departLane="free" departSpeed="max" id="13184" type="HV">
		<route edges="genE316 genE317"/>
	</vehicle>
	<vehicle depart="533.14" departLane="free" departSpeed="max" id="12708" type="HV">
		<route edges="genE296 genE317"/>
	</vehicle>
	<vehicle depart="537.8" departLane="free" departSpeed="max" id="12778" type="HV">
		<route edges="genE296 genE317"/>
	</vehicle>
	<vehicle depart="539.22" departLane="free" departSpeed="max" id="12512" type="CV">
		<route edges="genE296 genE307"/>
	</vehicle>
	<vehicle depart="540.7" departLane="free" departSpeed="max" id="12467" type="HV">
		<route edges="genE318 genE307"/>
	</vehicle>
	<vehicle depart="549.95" departLane="free" departSpeed="max" id="12836" type="HV">
		<route edges="genE296 genE317"/>
	</vehicle>
	<vehicle depart="551.35" departLane="free" departSpeed="max" id="12543" type="HV">
		<route edges="genE296 genE307"/>
	</vehicle>
	<vehicle depart="556.99" departLane="free" departSpeed="max" id="13181" type="CV">
		<route edges="genE316 genE317"/>
	</vehicle>
	<vehicle depart="557.76" departLane="free" departSpeed="max" id="12654" type="HV">
		<route edges="genE296 genE307"/>
	</vehicle>
	<vehicle depart="558.72" departLane="free" departSpeed="max" id="12462" type="HV">
		<route edges="genE318 genE307"/>
	</vehicle>
	<vehicle depart="561.42" departLane="free" departSpeed="max" id="12263" type="HV">
		<route edges="genE318 genE297"/>
	</vehicle>
	<vehicle depart="561.91" departLane="free" departSpeed="max" id="12997" type="HV">
		<route edges="genE316 genE297"/>
	</vehicle>
	<vehicle depart="563.27" departLane="free" departSpeed="max" id="12876" type="HV">
		<route edges="genE296 genE317"/>
	</vehicle>
	<vehicle depart="573.41" departLane="free" departSpeed="max" id="13218" type="HV">
		<route edges="genE316 genE317"/>
	</vehicle>
	<vehicle depart="575.63" departLane="free" departSpeed="max" id="12436" type="HV">
		<route edges="genE318 genE307"/>
	</vehicle>
	<vehicle depart="576.01" departLane="free" departSpeed="max" id="12625" type="HV">
		<route edges="genE296 genE307"/>
	</vehicle>
	<vehicle depart="579.31" departLane="free" departSpeed="max" id="12382" type="HV">
		<route edges="genE318 genE307"/>
	</vehicle>
	<vehicle depart="584.94" departLane="free" departSpeed="max" id="12995" type="HV">
		<route edges="genE316 genE297"/>
	</vehicle>
	<vehicle depart="588.31" departLane="free" departSpeed="max" id="12658" type="HV">
		<route edges="genE296 genE307"/>
	</vehicle>
	<vehicle depart="591.34" departLane="free" departSpeed="max" id="12321" type="CV">
		<route edges="genE318 genE297"/>
	</vehicle>
	<vehicle depart="591.47" departLane="free" departSpeed="max" id="12927" type="CV">
		<route edges="genE316 genE297"/>
	</vehicle>
	<vehicle depart="593.0" departLane="free" departSpeed="max" id="13239" type="HV">
		<route edges="genE316 genE317"/>
	</vehicle>
	<vehicle depart="595.14" departLane="free" departSpeed="max" id="12787" type="HV">
		<route edges="genE296 genE317"/>
	</vehicle>
	<vehicle depart="596.81" departLane="free" departSpeed="max" id="12905" type="HV">
		<route edges="genE316 genE297"/>
	</vehicle>
	<vehicle depart="600.65" departLane="free" departSpeed="max" id="12676" type="HV">
		<route edges="genE296 genE307"/>
	</vehicle>
	<vehicle depart="605.17" departLane="free" departSpeed="max" id="13288" type="HV">
		<route edges="genE316 genE317"/>
	</vehicle>
	<vehicle depart="613.73" departLane="free" departSpeed="max" id="12412" type="HV">
		<route edges="genE318 genE307"/>
	</vehicle>
	<vehicle depart="615.7" departLane="free" departSpeed="max" id="13038" type="CV">
		<route edges="genE316 genE297"/>
	</vehicle>
	<vehicle depart="620.47" departLane="free" departSpeed="max" id="12374" type="HV">
		<route edges="genE318 genE307"/>
	</vehicle>
	<vehicle depart="625.19" departLane="free" departSpeed="max" id="13087" type="HV">
		<route edges="genE316 genE297"/>
	</vehicle>
	<vehicle depart="627.57" departLane="free" departSpeed="max" id="13182" type="HV">
		<route edges="genE316 genE317"/>
	</vehicle>
	<vehicle depart="631.39" departLane="free" departSpeed="max" id="13267" type="HV">
		<route edges="genE316 genE317"/>
	</vehicle>
	<vehicle depart="632.0" departLane="free" departSpeed="max" id="12742" type="HV">
		<route edges="genE296 genE317"/>
	</vehicle>
	<vehicle depart="635.29" departLane="free" departSpeed="max" id="13161" type="CV">
		<route edges="genE316 genE317"/>
	</vehicle>
	<vehicle depart="637.36" departLane="free" departSpeed="max" id="13265" type="HV">
		<route edges="genE316 genE317"/>
	</vehicle>
	<vehicle depart="639.3" departLane="free" departSpeed="max" id="12591" type="HV">
		<route edges="genE296 genE307"/>
	</vehicle>
	<vehicle depart="642.13" departLane="free" departSpeed="max" id="12454" type="CV">
		<route edges="genE318 genE307"/>
	</vehicle>
	<vehicle depart="644.13" departLane="free" departSpeed="max" id="12480" type="HV">
		<route edges="genE318 genE307"/>
	</vehicle>
	<vehicle depart="644.26" departLane="free" departSpeed="max" id="12750" type="HV">
		<route edges="genE296 genE317"/>
	</vehicle>
	<vehicle depart="646.18" departLane="free" departSpeed="max" id="13284" type="HV">
		<route edges="genE316 genE317"/>
	</vehicle>
	<vehicle depart="647.33" departLane="free" departSpeed="max" id="12941" type="HV">
		<route edges="genE316 genE297"/>
	</vehicle>
	<vehicle depart="647.42" departLane="free" departSpeed="max" id="12487" type="HV">
		<route edges="genE318 genE307"/>
	</vehicle>
	<vehicle depart="650.98" departLane="free" departSpeed="max" id="12903" type="CV">
		<route edges="genE296 genE317"/>
	</vehicle>
	<vehicle depart="658.22" departLane="free" departSpeed="max" id="12516" type="HV">
		<route edges="genE296 genE307"/>
	</vehicle>
	<vehicle depart="661.49" departLane="free" departSpeed="max" id="13029" type="HV">
		<route edges="genE316 genE297"/>
	</vehicle>
	<vehicle depart="663.96" departLane="free" departSpeed="max" id="12290" type="HV">
		<route edges="genE318 genE297"/>
	</vehicle>
	<vehicle depart="665.24" departLane="free" departSpeed="max" id="12528" type="HV">
		<route edges="genE296 genE307"/>
	</vehicle>
	<vehicle depart="668.86" departLane="free" departSpeed="max" id="13209" type="HV">
		<route edges="genE316 genE317"/>
	</vehicle>
	<vehicle depart="671.35" departLane="free" departSpeed="max" id="12693" type="CV">
		<route edges="genE296 genE317"/>
	</vehicle>
	<vehicle depart="672.41" departLane="free" departSpeed="max" id="13118" type="HV">
		<route edges="genE316 genE297"/>
	</vehicle>
	<vehicle depart="674.78" departLane="free" departSpeed="max" id="12849" type="HV">
		<route edges="genE296 genE317"/>
	</vehicle>
	<vehicle depart="688.15" departLane="free" departSpeed="max" id="12577" type="CV">
		<route edges="genE296 genE307"/>