<?xml version="1.0" ?>
<routes>
	<vType accel="0.8" decel="4.5" id="CV" length="5" maxSpeed="45" sigma="0.5"/>
	<vType accel="0.8" decel="4.5" id="HV" length="5" maxSpeed="40" sigma="0.5"/>
	<vehicle depart="4.89" departLane="free" departSpeed="max" id="9035" type="HV">
		<route edges="genE316 genE297"/>
	</vehicle>
	<vehicle depart="7.04" departLane="free" departSpeed="max" id="8992" type="CV">
		<route edges="genE316 genE297"/>
	</vehicle>
	<vehicle depart="11.03" departLane="free" departSpeed="max" id="8836" type="CV">
		<route edges="genE296 genE317"/>
	</vehicle>
	<vehicle depart="12.0" departLane="free" departSpeed="max" id="8790" type="HV">
		<route edges="genE296 genE317"/>
	</vehicle>
	<vehicle depart="13.54" departLane="free" departSpeed="max" id="8649" type="HV">
		<route edges="genE296 genE317"/>
	</vehicle>
	<vehicle depart="18.1" departLane="free" departSpeed="max" id="8409" type="HV">
		<route edges="genE296 genE307"/>
	</vehicle>
	<vehicle depart="18.86" departLane="free" departSpeed="max" id="8502" type="HV">
		<route edges="genE296 genE307"/>
	</vehicle>
	<vehicle depart="19.13" departLane="free" departSpeed="max" id="9134" type="HV">
		<route edges="genE316 genE317"/>
	</vehicle>
	<vehicle depart="20.38" departLane="free" departSpeed="max" id="8756" type="HV">
		<route edges="genE296 genE317"/>
	</vehicle>
	<vehicle depart="23.34" departLane="free" departSpeed="max" id="8376" type="CV">
		<route edges="genE318 genE307"/>
	</vehicle>
	<vehicle depart="27.79" departLane="free" departSpeed="max" id="8639" type="HV">
		<route edges="genE296 genE317"/>
	</vehicle>
	<vehicle depart="29.57" departLane="free" departSpeed="max" id="8796" type="CV">
		<route edges="genE296 genE317"/>
	</vehicle>
	<vehicle depart="30.29" departLane="free" departSpeed="max" id="8995" type="HV">
		<route edges="genE316 genE297"/>
	</vehicle>
	<vehicle depart="37.11" departLane="free" departSpeed="max" id="9064" type="HV">
		<route edges="genE316 genE297"/>
	</vehicle>
	<vehicle depart="38.55" departLane="free" departSpeed="max" id="8476" type="HV">
		<route edges="genE296 genE307"/>
	</vehicle>
	<vehicle depart="40.02" departLane="free" departSpeed="max" id="8955" type="HV">
		<route edges="genE316 genE297"/>
	</vehicle>
	<vehicle depart="43.54" departLane="free" departSpeed="max" id="9168" type="HV">
		<route edges="genE316 genE317"/>
	</vehicle>
	<vehicle depart="48.04" departLane="free" departSpeed="max" id="9234" type="CV">
		<route edges="genE316 genE317"/>
	</vehicle>
	<vehicle depart="50.02" departLane="free" departSpeed="max" id="8550" type="HV">
		<route edges="genE296 genE307"/>
	</vehicle>
	<vehicle depart="53.54" departLane="free" departSpeed="max" id="8937" type="HV">
		<route edges="genE316 genE297"/>
	</vehicle>
	<vehicle depart="61.35" departLane="free" departSpeed="max" id="8881" type="HV">
		<route edges="genE316 genE297"/>
	</vehicle>
	<vehicle depart="63.06" departLane="free" departSpeed="max" id="8764" type="CV">
		<route edges="genE296 genE317"/>
	</vehicle>
	<vehicle depart="64.27" departLane="free" departSpeed="max" id="8976" type="HV">
		<route edges="genE316 genE297"/>
	</vehicle>
	<vehicle depart="66.45" departLane="free" departSpeed="max" id="8416" type="HV">
		<route edges="genE296 genE307"/>
	</vehicle>
	<vehicle depart="67.7" departLane="free" departSpeed="max" id="8597" type="HV">
		<route edges="genE296 genE307"/>
	</vehicle>
	<vehicle depart="69.03" departLane="free" departSpeed="max" id="8207" type="HV">
		<route edges="genE318 genE297"/>
	</vehicle>
	<vehicle depart="77.74" departLane="free" departSpeed="max" id="8943" type="CV">
		<route edges="genE316 genE297"/>
	</vehicle>
	<vehicle depart="86.99" departLane="free" departSpeed="max" id="8489" type="HV">
		<route edges="genE296 genE307"/>
	</vehicle>
	<vehicle depart="92.68" departLane="free" departSpeed="max" id="9100" type="CV">
		<route edges="genE316 genE317"/>
	</vehicle>
	<vehicle depart="94.67" departLane="free" departSpeed="max" id="9188" type="HV">
		<route edges="genE316 genE317"/>
	</vehicle>
	<vehicle depart="101.42" departLane="free" departSpeed="max" id="9045" type="HV">
		<route edges="genE316 genE297"/>
	</vehicle>
	<vehicle depart="105.58" departLane="free" departSpeed="max" id="9062" type="HV">
		<route edges="genE316 genE297"/>
	</vehicle>
	<vehicle depart="106.3" departLane="free" departSpeed="max" id="9002" type="HV">
		<route edges="genE316 genE297"/>
	</vehicle>
	<vehicle depart="108.82" departLane="free" departSpeed="max" id="8634" type="HV">
		<route edges="genE296 genE317"/>
	</vehicle>
	<vehicle depart="112.15" departLane="free" departSpeed="max" id="9244" type="HV">
		<route edges="genE316 genE317"/>
	</vehicle>
	<vehicle depart="118.55" departLane="free" departSpeed="max" id="8225" type="HV">
		<route edges="genE318 genE297"/>
	</vehicle>
	<vehicle depart="118.58" departLane="free" departSpeed="max" id="8981" type="HV">
		<route edges="genE316 genE297"/>
	</vehicle>
	<vehicle depart="121.53" departLane="free" departSpeed="max" id="8211" type="CV">
		<route edges="genE318 genE297"/>
	</vehicle>
	<vehicle depart="124.3" departLane="free" departSpeed="max" id="9232" type="HV">
		<route edges="genE316 genE317"/>
	</vehicle>
	<vehicle depart="124.7" departLane="free" departSpeed="max" id="8503" type="HV">
		<route edges="genE296 genE307"/>
	</vehicle>
	<vehicle depart="124.7" departLane="free" departSpeed="max" id="8359" type="HV">
		<route edges="genE318 genE307"/>
	</vehicle>
	<vehicle depart="126.56" departLane="free" departSpeed="max" id="8361" type="HV">
		<route edges="genE318 genE307"/>
	</vehicle>
	<vehicle depart="126.57" departLane="free" departSpeed="max" id="8988" type="CV">
		<route edges="genE316 genE297"/>
	</vehicle>
	<vehicle depart="127.2" departLane="free" departSpeed="max" id="8761" type="CV">
		<route edges="genE296 genE317"/>
	</vehicle>
	<vehicle depart="132.87" departLane="free" departSpeed="max" id="8702" type="CV">
		<route edges="genE296 genE317"/>
	</vehicle>
	<vehicle depart="135.56" departLane="free" departSpeed="max" id="8322" type="HV">
		<route edges="genE318 genE307"/>
	</vehicle>
	<vehicle depart="139.39" departLane="free" departSpeed="max" id="8328" type="HV">
		<route edges="genE318 genE307"/>
	</vehicle>
	<vehicle depart="145.67" departLane="free" departSpeed="max" id="9125" type="HV">
		<route edges="genE316 genE317"/>
	</vehicle>
	<vehicle depart="146.86" departLane="free" departSpeed="max" id="8429" type="HV">
		<route edges="genE296 genE307"/>
	</vehicle>
	<vehicle depart="155.2" departLane="free" departSpeed="max" id="8813" type="HV">
		<route edges="genE296 genE317"/>
	</vehicle>
	<vehicle depart="157.83" departLane="free" departSpeed="max" id="8264" type="HV">
		<route edges="genE318 genE307"/>
	</vehicle>
	<vehicle depart="164.72" departLane="free" departSpeed="max" id="8922" type="CV">
		<route edges="genE316 genE297"/>
	</vehicle>
	<vehicle depart="168.4" departLane="free" departSpeed="max" id="8394" type="HV">
		<route edges="genE318 genE307"/>
	</vehicle>
	<vehicle depart="170.75" departLane="free" departSpeed="max" id="8854" type="HV">
		<route edges="genE296 genE317"/>
	</vehicle>
	<vehicle depart="171.29" departLane="free" departSpeed="max" id="8141" type="HV">
		<route edges="genE318 genE297"/>
	</vehicle>
	<vehicle depart="173.49" departLane="free" departSpeed="max" id="9048" type="HV">
		<route edges="genE316 genE297"/>
	</vehicle>
	<vehicle depart="174.84" departLane="free" departSpeed="max" id="8172" type="HV">
		<route edges="genE318 genE297"/>
	</vehicle>
	<vehicle depart="180.29" departLane="free" departSpeed="max" id="8677" type="HV">
		<route edges="genE296 genE317"/>
	</vehicle>
	<vehicle depart="183.88" departLane="free" departSpeed="max" id="8869" type="HV">
		<route edges="genE316 genE297"/>
	</vehicle>
	<vehicle depart="185.06" departLane="free" departSpeed="max" id="8272" type="HV">
		<route edges="genE318 genE307"/>
	</vehicle>
	<vehicle depart="186.39" departLane="free" departSpeed="max" id="9174" type="HV">
		<route edges="genE316 genE317"/>
	</vehicle>
	<vehicle depart="186.81" departLane="free" departSpeed="max" id="8554" type="HV">
		<route edges="genE296 genE307"/>
	</vehicle>
	<vehicle depart="187.65" departLane="free" departSpeed="max" id="8392" type="HV">
		<route edges="genE318 genE307"/>
	</vehicle>
	<vehicle depart="190.39" departLane="free" departSpeed="max" id="8807" type="HV">
		<route edges="genE296 genE317"/>
	</vehicle>
	<vehicle depart="194.84" departLane="free" departSpeed="max" id="8396" type="HV">
		<route edges="genE318 genE307"/>
	</vehicle>
	<vehicle depart="196.23" departLane="free" departSpeed="max" id="8520" type="HV">
		<route edges="genE296 genE307"/>
	</vehicle>
	<vehicle depart="198.43" departLane="free" departSpeed="max" id="9029" type="HV">
		<route edges="genE316 genE297"/>
	</vehicle>
	<vehicle depart="200.97" departLane="free" departSpeed="max" id="8917" type="HV">
		<route edges="genE316 genE297"/>
	</vehicle>
	<vehicle depart="201.32" departLane="free" departSpeed="max" id="8609" type="HV">
		<route edges="genE296 genE307"/>
	</vehicle>
	<vehicle depart="201.7" departLane="free" departSpeed="max" id="8508" type="HV">
		<route edges="genE296 genE307"/>
	</vehicle>
	<vehicle depart="201.86" departLane="free" departSpeed="max" id="8698" type="CV">
		<route edges="genE296 genE317"/>
	</vehicle>
	<vehicle depart="206.07" departLane="free" departSpeed="max" id="8254" type="HV">
		<route edges="genE318 genE307"/>
	</vehicle>
	<vehicle depart="207.87" departLane="free" departSpeed="max" id="8701" type="HV">
		<route edges="genE296 genE317"/>
	</vehicle>
	<vehicle depart="209.03" departLane="free" departSpeed="max" id="9089" type="HV">
		<route edges="genE316 genE297"/>
	</vehicle>
	<vehicle depart="209.57" departLane="free" departSpeed="max" id="9078" type="CV">
		<route edges="genE316 genE297"/>
	</vehicle>
	<vehicle depart="221.53" departLane="free" departSpeed="max" id="8246" type="HV">
		<route edges="genE318 genE307"/>
	</vehicle>
	<vehicle depart="234.9" departLane="free" departSpeed="max" id="8706" type="HV">
		<route edges="genE296 genE317"/>
	</vehicle>
	<vehicle depart="236.84" departLane="free" departSpeed="max" id="8827" type="HV">
		<route edges="genE296 genE317"/>
	</vehicle>
	<vehicle depart="243.17" departLane="free" departSpeed="max" id="8991" type="HV">
		<route edges="genE316 genE297"/>
	</vehicle>
	<vehicle depart="249.51" departLane="free" departSpeed="max" id="8466" type="HV">
		<route edges="genE296 genE307"/>
	</vehicle>
	<vehicle depart="250.61" departLane="free" departSpeed="max" id="8674" type="CV">
		<route edges="genE296 genE317"/>
	</vehicle>
	<vehicle depart="256.59" departLane="free" departSpeed="max" id="9004" type="HV">
		<route edges="genE316 genE297"/>
	</vehicle>
	<vehicle depart="257.12" departLane="free" departSpeed="max" id="9206" type="HV">
		<route edges="genE316 genE317"/>
	</vehicle>
	<vehicle depart="258.02" departLane="free" departSpeed="max" id="9084" type="HV">
		<route edges="genE316 genE297"/>
	</vehicle>
	<vehicle depart="259.47" departLane="free" departSpeed="max" id="8618" type="CV">
		<route edges="genE296 genE317"/>
	</vehicle>
	<vehicle depart="264.19" departLane="free" departSpeed="max" id="8154" type="HV">
		<route edges="genE318 genE297"/>
	</vehicle>
	<vehicle depart="267.35" departLane="free" departSpeed="max" id="8235" type="CV">
		<route edges="genE318 genE307"/>
	</vehicle>
	<vehicle depart="273.12" departLane="free" departSpeed="max" id="8339" type="HV">
		<route edges="genE318 genE307"/>
	</vehicle>
	<vehicle depart="275.48" departLane="free" departSpeed="max" id="9111" type="HV">
		<route edges="genE316 genE317"/>
	</vehicle>
	<vehicle depart="280.21" departLane="free" departSpeed="max" id="8362" type="HV">
		<route edges="genE318 genE307"/>
	</vehicle>
	<vehicle depart="280.75" departLane="free" departSpeed="max" id="8855" type="HV">
		<route edges="genE296 genE317"/>
	</vehicle>
	<vehicle depart="282.98" departLane="free" departSpeed="max" id="8273" type="HV">
		<route edges="genE318 genE307"/>
	</vehicle>
	<vehicle depart="288.37" departLane="free" departSpeed="max" id="9291" type="CV">
		<route edges="genE316 genE317"/>
	</vehicle>
	<vehicle depart="290.49" departLane="free" departSpeed="max" id="8182" type="HV">
		<route edges="genE318 genE297"/>
	</vehicle>
	<vehicle depart="296.82" departLane="free" departSpeed="max" id="9271" type="HV">
		<route edges="genE316 genE317"/>
	</vehicle>
	<vehicle depart="304.72" departLane="free" departSpeed="max" id="9099" type="HV">
		<route edges="genE316 genE317"/>
	</vehicle>
	<vehicle depart="306.15" departLane="free" departSpeed="max" id="8492" type="HV">
		<route edges="genE296 genE307"/>
	</vehicle>
	<vehicle depart="307.05" departLane="free" departSpeed="max" id="8142" type="HV">
		<route edges="genE318 genE297"/>
	</vehicle>
	<vehicle depart="307.06" departLane="free" departSpeed="max" id="9057" type="HV">
		<route edges="genE316 genE297"/>
	</vehicle>
	<vehicle depart="307.23" departLane="free" departSpeed="max" id="8925" type="HV">
		<route edges="genE316 genE297"/>
	</vehicle>
	<vehicle depart="310.76" departLane="free" departSpeed="max" id="8487" type="HV">
		<route edges="genE296 genE307"/>
	</vehicle>
	<vehicle depart="316.0" departLane="free" departSpeed="max" id="8802" type="HV">
		<route edges="genE296 genE317"/>
	</vehicle>
	<vehicle depart="320.33" departLane="free" departSpeed="max" id="8386" type="HV">
		<route edges="genE318 genE307"/>
	</vehicle>
	<vehicle depart="324.09" departLane="free" departSpeed="max" id="8742" type="HV">
		<route edges="genE296 genE317"/>
	</vehicle>
	<vehicle depart="332.32" departLane="free" departSpeed="max" id="8199" type="HV">
		<route edges="genE318 genE297"/>
	</vehicle>
	<vehicle depart="332.93" departLane="free" departSpeed="max" id="8324" type="HV">
		<route edges="genE318 genE307"/>
	</vehicle>
	<vehicle depart="343.72" departLane="free" departSpeed="max" id="9086" type="CV">
		<route edges="genE316 genE297"/>
	</vehicle>
	<vehicle depart="346.07" departLane="free" departSpeed="max" id="9198" type="HV">
		<route edges="genE316 genE317"/>
	</vehicle>
	<vehicle depart="351.52" departLane="free" departSpeed="max" id="8862" type="HV">
		<route edges="genE316 genE297"/>
	</vehicle>
	<vehicle depart="354.62" departLane="free" departSpeed="max" id="8600" type="HV">
		<route edges="genE296 genE307"/>
	</vehicle>
	<vehicle depart="355.55" departLane="free" departSpeed="max" id="8817" type="HV">
		<route edges="genE296 genE317"/>
	</vehicle>
	<vehicle depart="356.43" departLane="free" departSpeed="max" id="8857" type="HV">
		<route edges="genE316 genE297"/>
	</vehicle>
	<vehicle depart="359.79" departLane="free" departSpeed="max" id="8222" type="HV">
		<route edges="genE318 genE297"/>
	</vehicle>
	<vehicle depart="360.19" departLane="free" departSpeed="max" id="8716" type="HV">
		<route edges="genE296 genE317"/>
	</vehicle>
	<vehicle depart="363.47" departLane="free" departSpeed="max" id="9049" type="HV">
		<route edges="genE316 genE297"/>
	</vehicle>
	<vehicle depart="365.0" departLane="free" departSpeed="max" id="8651" type="HV">
		<route edges="genE296 genE317"/>
	</vehicle>
	<vehicle depart="366.58" departLane="free" departSpeed="max" id="8604" type="HV">
		<route edges="genE296 genE307"/>
	</vehicle>
	<vehicle depart="367.5" departLane="free" departSpeed="max" id="8574" type="HV">
		<route edges="genE296 genE307"/>
	</vehicle>
	<vehicle depart="369.37" departLane="free" departSpeed="max" id="9209" type="HV">
		<route edges="genE316 genE317"/>
	</vehicle>
	<vehicle depart="373.13" departLane="free" departSpeed="max" id="8321" type="HV">
		<route edges="genE318 genE307"/>
	</vehicle>
	<vehicle depart="375.49" departLane="free" departSpeed="max" id="8198" type="HV">
		<route edges="genE318 genE297"/>
	</vehicle>
	<vehicle depart="382.23" departLane="free" departSpeed="max" id="8765" type="HV">
		<route edges="genE296 genE317"/>
	</vehicle>
	<vehicle depart="383.22" departLane="free" departSpeed="max" id="8591" type="HV">
		<route edges="genE296 genE307"/>
	</vehicle>
	<vehicle depart="386.04" departLane="free" departSpeed="max" id="8644" type="HV">
		<route edges="genE296 genE317"/>
	</vehicle>
	<vehicle depart="386.07" departLane="free" departSpeed="max" id="8139" type="CV">
		<route edges="genE318 genE297"/>
	</vehicle>
	<vehicle depart="387.52" departLane="free" departSpeed="max" id="8482" type="HV">
		<route edges="genE296 genE307"/>
	</vehicle>
	<vehicle depart="390.13" departLane="free" departSpeed="max" id="8216" type="CV">
		<route edges="genE318 genE297"/>
	</vehicle>
	<vehicle depart="391.64" departLane="free" departSpeed="max" id="8440" type="HV">
		<route edges="genE296 genE307"/>
	</vehicle>
	<vehicle depart="395.89" departLane="free" departSpeed="max" id="9276" type="HV">
		<route edges="genE316 genE317"/>
	</vehicle>
	<vehicle depart="408.58" departLane="free" departSpeed="max" id="8727" type="HV">
		<route edges="genE296 genE317"/>
	</vehicle>
	<vehicle depart="413.33" departLane="free" departSpeed="max" id="8335" type="HV">
		<route edges="genE318 genE307"/>
	</vehicle>
	<vehicle depart="413.85" departLane="free" departSpeed="max" id="8397" type="HV">
		<route edges="genE318 genE307"/>
	</vehicle>
	<vehicle depart="421.04" departLane="free" departSpeed="max" id="8546" type="HV">
		<route edges="genE296 genE307"/>
	</vehicle>
	<vehicle depart="422.47" departLane="free" departSpeed="max" id="8737" type="CV">
		<route edges="genE296 genE317"/>
	</vehicle>
	<vehicle depart="422.81" departLane="free" departSpeed="max" id="8940" type="HV">
		<route edges="genE316 genE297"/>
	</vehicle>
	<vehicle depart="428.22" departLane="free" departSpeed="max" id="8252" type="CV">
		<route edges="genE318 genE307"/>
	</vehicle>
	<vehicle depart="435.85" departLane="free" departSpeed="max" id="8534" type="CV">
		<route edges="genE296 genE307"/>
	</vehicle>
	<vehicle depart="437.13" departLane="free" departSpeed="max" id="8444" type="CV">
		<route edges="genE296 genE307"/>
	</vehicle>
	<vehicle depart="438.3" departLane="free" departSpeed="max" id="8450" type="HV">
		<route edges="genE296 genE307"/>
	</vehicle>
	<vehicle depart="442.5" departLane="free" departSpeed="max" id="8913" type="HV">
		<route edges="genE316 genE297"/>
	</vehicle>
	<vehicle depart="443.05" departLane="free" departSpeed="max" id="9228" type="HV">
		<route edges="genE316 genE317"/>
	</vehicle>
	<vehicle depart="447.9" departLane="free" departSpeed="max" id="8932" type="HV">
		<route edges="genE316 genE297"/>
	</vehicle>
	<vehicle depart="450.94" departLane="free" departSpeed="max" id="8300" type="HV">
		<route edges="genE318 genE307"/>
	</vehicle>
	<vehicle depart="451.11" departLane="free" departSpeed="max" id="8638" type="HV">
		<route edges="genE296 genE317"/>
	</vehicle>
	<vehicle depart="452.18" departLane="free" departSpeed="max" id="8739" type="HV">
		<route edges="genE296 genE317"/>
	</vehicle>
	<vehicle depart="453.64" departLane="free" departSpeed="max" id="8525" type="HV">
		<route edges="genE296 genE307"/>
	</vehicle>
	<vehicle depart="453.85" departLane="free" departSpeed="max" id="8391" type="HV">
		<route edges="genE318 genE307"/>
	</vehicle>
	<vehicle depart="453.94" departLane="free" departSpeed="max" id="8337" type="HV">
		<route edges="genE318 genE307"/>
	</vehicle>
	<vehicle depart="457.82" departLane="free" departSpeed="max" id="8302" type="HV">
		<route edges="genE318 genE307"/>
	</vehicle>
	<vehicle depart="458.95" departLane="free" departSpeed="max" id="8877" type="HV">
		<route edges="genE316 genE297"/>
	</vehicle>
	<vehicle depart="459.63" departLane="free" departSpeed="max" id="9251" type="CV">
		<route edges="genE316 genE317"/>
	</vehicle>
	<vehicle depart="465.53" departLane="free" departSpeed="max" id="8994" type="HV">
		<route edges="genE316 genE297"/>
	</vehicle>
	<vehicle depart="469.78" departLane="free" departSpeed="max" id="9079" type="HV">
		<route edges="genE316 genE297"/>
	</vehicle>
	<vehicle depart="471.43" departLane="free" departSpeed="max" id="8798" type="HV">
		<route edges="genE296 genE317"/>
	</vehicle>
	<vehicle depart="475.06" departLane="free" departSpeed="max" id="9070" type="CV">
		<route edges="genE316 genE297"/>
	</vehicle>
	<vehicle depart="475.19" departLane="free" departSpeed="max" id="8961" type="CV">
		<route edges="genE316 genE297"/>
	</vehicle>
	<vehicle depart="477.28" departLane="free" departSpeed="max" id="9147" type="CV">
		<route edges="genE316 genE317"/>
	</vehicle>
	<vehicle depart="477.85" departLane="free" departSpeed="max" id="8268" type="HV">
		<route edges="genE318 genE307"/>
	</vehicle>
	<vehicle depart="480.85" departLane="free" departSpeed="max" id="8343" type="HV">
		<route edges="genE318 genE307"/>
	</vehicle>
	<vehicle depart="484.58" departLane="free" departSpeed="max" id="8999" type="HV">
		<route edges="genE316 genE297"/>
	</vehicle>
	<vehicle depart="486.06" departLane="free" departSpeed="max" id="9166" type="HV">
		<route edges="genE316 genE317"/>
	</vehicle>
	<vehicle depart="493.57" departLane="free" departSpeed="max" id="8447" type="CV">
		<route edges="genE296 genE307"/>
	</vehicle>
	<vehicle depart="495.88" departLane="free" departSpeed="max" id="8344" type="HV">
		<route edges="genE318 genE307"/>
	</vehicle>
	<vehicle depart="497.27" departLane="free" departSpeed="max" id="8221" type="HV">
		<route edges="genE318 genE297"/>
	</vehicle>
	<vehicle depart="499.03" departLane="free" departSpeed="max" id="8950" type="HV">
		<route edges="genE316 genE297"/>
	</vehicle>
	<vehicle depart="513.77" departLane="free" departSpeed="max" id="8490" type="HV">
		<route edges="genE296 genE307"/>
	</vehicle>
	<vehicle depart="527.86" departLane="free" departSpeed="max" id="8143" type="CV">
		<route edges="genE318 genE297"/>
	</vehicle>
	<vehicle depart="529.81" departLane="free" departSpeed="max" id="9113" type="HV">
		<route edges="genE316 genE317"/>
	</vehicle>
	<vehicle depart="533.48" departLane="free" departSpeed="max" id="8789" type="HV">
		<route edges="genE296 genE317"/>
	</vehicle>
	<vehicle depart="541.47" departLane="free" departSpeed="max" id="8238" type="HV">
		<route edges="genE318 genE307"/>
	</vehicle>
	<vehicle depart="544.14" departLane="free" departSpeed="max" id="8149" type="HV">
		<route edges="genE318 genE297"/>
	</vehicle>
	<vehicle depart="547.9" departLane="free" departSpeed="max" id="8579" type="HV">
		<route edges="genE296 genE307"/>
	</vehicle>
	<vehicle depart="551.38" departLane="free" departSpeed="max" id="8175" type="HV">
		<route edges="genE318 genE297"/>
	</vehicle>
	<vehicle depart="552.63" departLane="free" departSpeed="max" id="8219" type="HV">
		<route edges="genE318 genE297"/>
	</vehicle>
	<vehicle depart="557.12" departLane="free" departSpeed="max" id="8611" type="CV">
		<route edges="genE296 genE307"/>
	</vehicle>
	<vehicle depart="559.01" departLane="free" departSpeed="max" id="8537" type="HV">
		<route edges="genE296 genE307"/>
	</vehicle>
	<vehicle depart="561.27" departLane="free" departSpeed="max" id="8844" type="CV">
		<route edges="genE296 genE317"/>
	</vehicle>
	<vehicle depart="562.06" departLane="free" departSpeed="max" id="8241" type="HV">
		<route edges="genE318 genE307"/>
	</vehicle>
	<vehicle depart="563.07" departLane="free" departSpeed="max" id="9275" type="HV">
		<route edges="genE316 genE317"/>
	</vehicle>
	<vehicle depart="564.79" departLane="free" departSpeed="max" id="8555" type="HV">
		<route edges="genE296 genE307"/>
	</vehicle>
	<vehicle depart="566.43" departLane="free" departSpeed="max" id="8660" type="HV">
		<route edges="genE296 genE317"/>
	</vehicle>
	<vehicle depart="567.98" departLane="free" departSpeed="max" id="8726" type="HV">
		<route edges="genE296 genE317"/>
	</vehicle>
	<vehicle depart="569.45" departLane="free" departSpeed="max" id="9264" type="HV">
		<route edges="genE316 genE317"/>
	</vehicle>
	<vehicle depart="571.19" departLane="free" departSpeed="max" id="8470" type="CV">
		<route edges="genE296 genE307"/>
	</vehicle>
	<vehicle depart="583.83" departLane="free" departSpeed="max" id="9119" type="HV">
		<route edges="genE316 genE317"/>
	</vehicle>
	<vehicle depart="595.58" departLane="free" departSpeed="max" id="9040" type="CV">
		<route edges="genE316 genE297"/>
	</vehicle>
	<vehicle depart="595.65" departLane="free" departSpeed="max" id="8146" type="HV">
		<route edges="genE318 genE297"/>
	</vehicle>
	<vehicle depart="599.52" departLane="free" departSpeed="max" id="8969" type="HV">
		<route edges="genE316 genE297"/>
	</vehicle>
	<vehicle depart="601.86" departLane="free" departSpeed="max" id="9032" type="HV">
		<route edges="genE316 genE297"/>
	</vehicle>
	<vehicle depart="603.4" departLane="free" departSpeed="max" id="8363" type="CV">
		<route edges="genE318 genE307"/>
	</vehicle>
	<vehicle depart="609.84" departLane="free" departSpeed="max" id="8794" type="HV">
		<route edges="genE296 genE317"/>
	</vehicle>
	<vehicle depart="610.4" departLane="free" departSpeed="max" id="8217" type="HV">
		<route edges="genE318 genE297"/>
	</vehicle>
	<vehicle depart="612.76" departLane="free" departSpeed="max" id="8369" type="CV">
		<route edges="genE318 genE307"/>
	</vehicle>
	<vehicle depart="616.59" departLane="free" departSpeed="max" id="8266" type="HV">
		<route edges="genE318 genE307"/>
	</vehicle>
	<vehicle depart="620.25" departLane="free" departSpeed="max" id="8171" type="HV">
		<route edges="genE318 genE297"/>
	</vehicle>
	<vehicle depart="620.87" departLane="free" departSpeed="max" id="8873" type="HV">
		<route edges="genE316 genE297"/>
	</vehicle>
	<vehicle depart="622.79" departLane="free" departSpeed="max" id="9128" type="HV">
		<route edges="genE316 genE317"/>
	</vehicle>
	<vehicle depart="628.56" departLane="free" departSpeed="max" id="8948" type="HV">
		<route edges="genE316 genE297"/>
	</vehicle>
	<vehicle depart="628.99" departLane="free" departSpeed="max" id="8803" type="CV">
		<route edges="genE296 genE317"/>
	</vehicle>
	<vehicle depart="630.71" departLane="free" departSpeed="max" id="8685" type="HV">
		<route edges="genE296 genE317"/>
	</vehicle>
	<vehicle depart="631.89" departLane="free" departSpeed="max" id="8287" type="HV">
		<route edges="genE318 genE307"/>
	</vehicle>
	<vehicle depart="632.51" departLane="free" departSpeed="max" id="8714" type="HV">
		<route edges="genE296 genE317"/>
	</vehicle>
	<vehicle depart="635.25" departLane="free" departSpeed="max" id="8374" type="HV">
		<route edges="genE318 genE307"/>
	</vehicle>
	<vehicle depart="636.63" departLane="free" departSpeed="max" id="8695" type="HV">
		<route edges="genE296 genE317"/>
	</vehicle>
	<vehicle depart="645.74" departLane="free" departSpeed="max" id="8675" type="HV">
		<route edges="genE296 genE317"/>
	</vehicle>
	<vehicle depart="646.92" departLane="free" departSpeed="max" id="8346" type="HV">
		<route edges="genE318 genE307"/>
	</vehicle>
	<vehicle depart="649.77" departLane="free" departSpeed="max" id="8338" type="HV">
		<route edges="genE318 genE307"/>
	</vehicle>
	<vehicle depart="651.12" departLane="free" departSpeed="max" id="9217" type="HV">
		<route edges="genE316 genE317"/>
	</vehicle>
	<vehicle depart="660.0" departLane="free" departSpeed="max" id="8763" type="HV">
		<route edges="genE296 genE317"/>
	</vehicle>
	<vehicle depart="660.49" departLane="free" departSpeed="max" id="8532" type="HV">
		<route edges="genE296 genE307"/>
	</vehicle>
	<vehicle depart="662.42" departLane="free" departSpeed="max" id="8350" type="HV">
		<route edges="genE318 genE307"/>
	</vehicle>
	<vehicle depart="664.77" departLane="free" departSpeed="max" id="8897" type="HV">
		<route edges="genE316 genE297"/>
	</vehicle>
	<vehicle depart="665.74" departLane="free" departSpeed="max" id="8810" type="HV">
		<route edges="genE296 genE317"/>
	</vehicle>
	<vehicle depart="667.03" departLane="free" departSpeed="max" id="9162" type="HV">
		<route edges="genE316 genE317"/>
	</vehicle>
	<vehicle depart="671.29" departLane="free" departSpeed="max" id="8449" type="HV">
		<route edges="genE296 genE307"/>
	</vehicle>
	<vehicle depart="672.89" departLane="free" departSpeed="max" id="8445" type="HV">
		<route edges="genE296 genE307"/>
	</vehicle>
	<vehicle depart="674.61" departLane="free" departSpeed="max" id="9290" type="CV">
		<route edges="genE316 genE317"/>
	</vehicle>
	<vehicle depart="675.74" departLane="free" departSpeed="max" id="8137" type="HV">
		<route edges="genE318 genE297"/>
	</vehicle>
	<vehicle depart="677.47" departLane="free" departSpeed="max" id="8161" type="HV">
		<route edges="genE318 genE297"/>
	</vehicle>
	<vehicle depart="678.01" departLane="free" departSpeed="max" id="8657" type="CV">
		<route edges="genE296 genE317"/>
	</vehicle>
	<vehicle depart="681.13" departLane="free" departSpeed="max" id="9233" type="CV">
		<route edges="genE316 genE317"/>
	</vehicle>
	<vehicle depart="684.08" departLane="free" departSpeed="max" id="8744" type="HV">
		<route edges="genE296 genE317"/>
	</vehicle>
	<vehicle depart="686.33" departLane="free" departSpeed="max" id="9050" type="HV">
		<route edges="genE316 genE297"/>
	</vehicle>
	<vehicle depart="686.43" departLane="free" departSpeed="max" id="9043" type="HV">
		<route edges="genE316 genE297"/>
	</vehicle>
	<vehicle depart="690.64" departLane="free" departSpeed="max" id="8655" type="HV">
		<route edges="genE296 genE317"/>
	</vehicle>
	<vehicle depart="691.0" departLane="free" departSpeed="max" id="9137" type="HV">
		<route edges="genE316 genE317"/>
	</vehicle>
	<vehicle depart="696.86" departLane="free" departSpeed="max" id="8212" type="CV">
		<route edges="genE318 genE297"/>
	</vehicle>
	<vehicle depart="699.13" departLane="free" departSpeed="max" id="9285" type="HV">
		<route edges="genE316 genE317"/>
	</vehicle>
	<vehicle depart="702.22" departLane="free" departSpeed="max" id="8486" type="CV">
		<route edges="genE296 genE307"/>
	</vehicle>
	<vehicle depart="702.93" departLane="free" departSpeed="max" id="8853" type="HV">