<?xml version="1.0" ?>
<routes>
	<vType accel="0.8" decel="4.5" id="CV" length="5" maxSpeed="45" sigma="0.5"/>
	<vType accel="0.8" decel="4.5" id="HV" length="5" maxSpeed="40" sigma="0.5"/>
	<vehicle depart="0.79" departLane="free" departSpeed="max" id="20000" type="HV">
		<route edges="genE318 genE307"/>
	</vehicle>
	<vehicle depart="3.52" departLane="free" departSpeed="max" id="20698" type="HV">
		<route edges="genE296 genE317"/>
	</vehicle>
	<vehicle depart="7.08" departLane="free" departSpeed="max" id="19931" type="HV">
		<route edges="genE318 genE297"/>
	</vehicle>
	<vehicle depart="9.23" departLane="free" departSpeed="max" id="21288" type="HV">
		<route edges="genE316 genE317"/>
	</vehicle>
	<vehicle depart="9.24" departLane="free" departSpeed="max" id="20264" type="HV">
		<route edges="genE296 genE307"/>
	</vehicle>
	<vehicle depart="9.37" departLane="free" departSpeed="max" id="21090" type="CV">
		<route edges="genE316 genE297"/>
	</vehicle>
	<vehicle depart="11.27" departLane="free" departSpeed="max" id="19982" type="CV">
		<route edges="genE318 genE297"/>
	</vehicle>
	<vehicle depart="11.39" departLane="free" departSpeed="max" id="20804" type="HV">
		<route edges="genE296 genE317"/>
	</vehicle>
	<vehicle depart="15.49" departLane="free" departSpeed="max" id="20845" type="CV">
		<route edges="genE316 genE297"/>
	</vehicle>
	<vehicle depart="16.93" departLane="free" departSpeed="max" id="20364" type="HV">
		<route edges="genE296 genE307"/>
	</vehicle>
	<vehicle depart="17.25" departLane="free" departSpeed="max" id="20232" type="CV">
		<route edges="genE296 genE307"/>
	</vehicle>
	<vehicle depart="23.67" departLane="free" departSpeed="max" id="20437" type="HV">
		<route edges="genE296 genE307"/>
	</vehicle>
	<vehicle depart="26.48" departLane="free" departSpeed="max" id="20503" type="HV">
		<route edges="genE296 genE307"/>
	</vehicle>
	<vehicle depart="27.48" departLane="free" departSpeed="max" id="20512" type="HV">
		<route edges="genE296 genE307"/>
	</vehicle>
	<vehicle depart="29.72" departLane="free" departSpeed="max" id="21326" type="HV">
		<route edges="genE316 genE317"/>
	</vehicle>
	<vehicle depart="32.53" departLane="free" departSpeed="max" id="20724" type="CV">
		<route edges="genE296 genE317"/>
	</vehicle>
	<vehicle depart="34.22" departLane="free" departSpeed="max" id="19986" type="CV">
		<route edges="genE318 genE297"/>
	</vehicle>
	<vehicle depart="35.06" departLane="free" departSpeed="max" id="19932" type="HV">
		<route edges="genE318 genE297"/>
	</vehicle>
	<vehicle depart="35.06" departLane="free" departSpeed="max" id="21327" type="HV">
		<route edges="genE316 genE317"/>
	</vehicle>
	<vehicle depart="35.29" departLane="free" departSpeed="max" id="21182" type="CV">
		<route edges="genE316 genE317"/>
	</vehicle>
	<vehicle depart="35.62" departLane="free" departSpeed="max" id="21258" type="HV">
		<route edges="genE316 genE317"/>
	</vehicle>
	<vehicle depart="37.09" departLane="free" departSpeed="max" id="21403" type="CV">
		<route edges="genE316 genE317"/>
	</vehicle>
	<vehicle depart="38.6" departLane="free" departSpeed="max" id="21020" type="HV">
		<route edges="genE316 genE297"/>
	</vehicle>
	<vehicle depart="46.23" departLane="free" departSpeed="max" id="20924" type="CV">
		<route edges="genE316 genE297"/>
	</vehicle>
	<vehicle depart="52.0" departLane="free" departSpeed="max" id="20688" type="CV">
		<route edges="genE296 genE317"/>
	</vehicle>
	<vehicle depart="52.65" departLane="free" departSpeed="max" id="21204" type="HV">
		<route edges="genE316 genE317"/>
	</vehicle>
	<vehicle depart="55.29" departLane="free" departSpeed="max" id="20806" type="HV">
		<route edges="genE296 genE317"/>
	</vehicle>
	<vehicle depart="58.55" departLane="free" departSpeed="max" id="20866" type="HV">
		<route edges="genE316 genE297"/>
	</vehicle>
	<vehicle depart="61.05" departLane="free" departSpeed="max" id="21166" type="HV">
		<route edges="genE316 genE317"/>
	</vehicle>
	<vehicle depart="65.7" departLane="free" departSpeed="max" id="21371" type="HV">
		<route edges="genE316 genE317"/>
	</vehicle>
	<vehicle depart="67.06" departLane="free" departSpeed="max" id="20023" type="HV">
		<route edges="genE318 genE307"/>
	</vehicle>
	<vehicle depart="69.2" departLane="free" departSpeed="max" id="21380" type="CV">
		<route edges="genE316 genE317"/>
	</vehicle>
	<vehicle depart="70.45" departLane="free" departSpeed="max" id="20451" type="HV">
		<route edges="genE296 genE307"/>
	</vehicle>
	<vehicle depart="75.36" departLane="free" departSpeed="max" id="20395" type="HV">
		<route edges="genE296 genE307"/>
	</vehicle>
	<vehicle depart="79.63" departLane="free" departSpeed="max" id="20227" type="CV">
		<route edges="genE296 genE307"/>
	</vehicle>
	<vehicle depart="81.4" departLane="free" departSpeed="max" id="19957" type="HV">
		<route edges="genE318 genE297"/>
	</vehicle>
	<vehicle depart="81.5" departLane="free" departSpeed="max" id="20664" type="HV">
		<route edges="genE296 genE317"/>
	</vehicle>
	<vehicle depart="82.33" departLane="free" departSpeed="max" id="19884" type="CV">
		<route edges="genE318 genE297"/>
	</vehicle>
	<vehicle depart="83.0" departLane="free" departSpeed="max" id="21372" type="HV">
		<route edges="genE316 genE317"/>
	</vehicle>
	<vehicle depart="84.06" departLane="free" departSpeed="max" id="20611" type="HV">
		<route edges="genE296 genE317"/>
	</vehicle>
	<vehicle depart="85.61" departLane="free" departSpeed="max" id="21044" type="CV">
		<route edges="genE316 genE297"/>
	</vehicle>
	<vehicle depart="85.74" departLane="free" departSpeed="max" id="21010" type="HV">
		<route edges="genE316 genE297"/>
	</vehicle>
	<vehicle depart="89.21" departLane="free" departSpeed="max" id="20511" type="HV">
		<route edges="genE296 genE307"/>
	</vehicle>
	<vehicle depart="89.76" departLane="free" departSpeed="max" id="20646" type="HV">
		<route edges="genE296 genE317"/>
	</vehicle>
	<vehicle depart="93.61" departLane="free" departSpeed="max" id="21227" type="HV">
		<route edges="genE316 genE317"/>
	</vehicle>
	<vehicle depart="97.61" departLane="free" departSpeed="max" id="20728" type="HV">
		<route edges="genE296 genE317"/>
	</vehicle>
	<vehicle depart="97.89" departLane="free" departSpeed="max" id="19930" type="CV">
		<route edges="genE318 genE297"/>
	</vehicle>
	<vehicle depart="99.79" departLane="free" departSpeed="max" id="19924" type="HV">
		<route edges="genE318 genE297"/>
	</vehicle>
	<vehicle depart="100.63" departLane="free" departSpeed="max" id="20667" type="HV">
		<route edges="genE296 genE317"/>
	</vehicle>
	<vehicle depart="102.48" departLane="free" departSpeed="max" id="20004" type="HV">
		<route edges="genE318 genE307"/>
	</vehicle>
	<vehicle depart="109.34" departLane="free" departSpeed="max" id="21027" type="HV">
		<route edges="genE316 genE297"/>
	</vehicle>
	<vehicle depart="112.56" departLane="free" departSpeed="max" id="19900" type="HV">
		<route edges="genE318 genE297"/>
	</vehicle>
	<vehicle depart="113.8" departLane="free" departSpeed="max" id="20835" type="HV">
		<route edges="genE296 genE317"/>
	</vehicle>
	<vehicle depart="115.05" departLane="free" departSpeed="max" id="21121" type="CV">
		<route edges="genE316 genE297"/>
	</vehicle>
	<vehicle depart="115.99" departLane="free" departSpeed="max" id="20121" type="HV">
		<route edges="genE318 genE307"/>
	</vehicle>
	<vehicle depart="121.56" departLane="free" departSpeed="max" id="19922" type="HV">
		<route edges="genE318 genE297"/>
	</vehicle>
	<vehicle depart="123.46" departLane="free" departSpeed="max" id="20083" type="HV">
		<route edges="genE318 genE307"/>
	</vehicle>
	<vehicle depart="127.47" departLane="free" departSpeed="max" id="19997" type="HV">
		<route edges="genE318 genE297"/>
	</vehicle>
	<vehicle depart="131.77" departLane="free" departSpeed="max" id="19880" type="HV">
		<route edges="genE318 genE297"/>
	</vehicle>
	<vehicle depart="135.25" departLane="free" departSpeed="max" id="20840" type="HV">
		<route edges="genE316 genE297"/>
	</vehicle>
	<vehicle depart="135.89" departLane="free" departSpeed="max" id="20629" type="CV">
		<route edges="genE296 genE317"/>
	</vehicle>
	<vehicle depart="139.76" departLane="free" departSpeed="max" id="20827" type="HV">
		<route edges="genE296 genE317"/>
	</vehicle>
	<vehicle depart="146.04" departLane="free" departSpeed="max" id="20065" type="HV">
		<route edges="genE318 genE307"/>
	</vehicle>
	<vehicle depart="151.6" departLane="free" departSpeed="max" id="20022" type="CV">
		<route edges="genE318 genE307"/>
	</vehicle>
	<vehicle depart="153.15" departLane="free" departSpeed="max" id="20173" type="HV">
		<route edges="genE318 genE307"/>
	</vehicle>
	<vehicle depart="153.81" departLane="free" departSpeed="max" id="20758" type="HV">
		<route edges="genE296 genE317"/>
	</vehicle>
	<vehicle depart="153.96" departLane="free" departSpeed="max" id="20394" type="HV">
		<route edges="genE296 genE307"/>
	</vehicle>
	<vehicle depart="154.39" departLane="free" departSpeed="max" id="20111" type="HV">
		<route edges="genE318 genE307"/>
	</vehicle>
	<vehicle depart="157.03" departLane="free" departSpeed="max" id="20872" type="HV">
		<route edges="genE316 genE297"/>
	</vehicle>
	<vehicle depart="157.4" departLane="free" departSpeed="max" id="19998" type="CV">
		<route edges="genE318 genE297"/>
	</vehicle>
	<vehicle depart="160.93" departLane="free" departSpeed="max" id="20006" type="HV">
		<route edges="genE318 genE307"/>
	</vehicle>
	<vehicle depart="168.96" departLane="free" departSpeed="max" id="21099" type="CV">
		<route edges="genE316 genE297"/>
	</vehicle>
	<vehicle depart="171.63" departLane="free" departSpeed="max" id="21094" type="HV">
		<route edges="genE316 genE297"/>
	</vehicle>
	<vehicle depart="173.49" departLane="free" departSpeed="max" id="20903" type="HV">
		<route edges="genE316 genE297"/>
	</vehicle>
	<vehicle depart="173.51" departLane="free" departSpeed="max" id="20445" type="HV">
		<route edges="genE296 genE307"/>
	</vehicle>
	<vehicle depart="174.01" departLane="free" departSpeed="max" id="20902" type="HV">
		<route edges="genE316 genE297"/>
	</vehicle>
	<vehicle depart="181.05" departLane="free" departSpeed="max" id="20732" type="HV">
		<route edges="genE296 genE317"/>
	</vehicle>
	<vehicle depart="185.34" departLane="free" departSpeed="max" id="20274" type="HV">
		<route edges="genE296 genE307"/>
	</vehicle>
	<vehicle depart="186.85" departLane="free" departSpeed="max" id="20792" type="HV">
		<route edges="genE296 genE317"/>
	</vehicle>
	<vehicle depart="187.45" departLane="free" departSpeed="max" id="19916" type="HV">
		<route edges="genE318 genE297"/>
	</vehicle>
	<vehicle depart="187.92" departLane="free" departSpeed="max" id="20255" type="CV">
		<route edges="genE296 genE307"/>
	</vehicle>
	<vehicle depart="188.69" departLane="free" departSpeed="max" id="20877" type="HV">
		<route edges="genE316 genE297"/>
	</vehicle>
	<vehicle depart="190.16" departLane="free" departSpeed="max" id="21012" type="CV">
		<route edges="genE316 genE297"/>
	</vehicle>
	<vehicle depart="196.22" departLane="free" departSpeed="max" id="20958" type="CV">
		<route edges="genE316 genE297"/>
	</vehicle>
	<vehicle depart="197.24" departLane="free" departSpeed="max" id="20885" type="HV">
		<route edges="genE316 genE297"/>
	</vehicle>
	<vehicle depart="198.12" departLane="free" departSpeed="max" id="20498" type="HV">
		<route edges="genE296 genE307"/>
	</vehicle>
	<vehicle depart="200.7" departLane="free" departSpeed="max" id="20340" type="HV">
		<route edges="genE296 genE307"/>
	</vehicle>
	<vehicle depart="202.82" departLane="free" departSpeed="max" id="20892" type="HV">
		<route edges="genE316 genE297"/>
	</vehicle>
	<vehicle depart="203.53" departLane="free" departSpeed="max" id="20001" type="HV">
		<route edges="genE318 genE307"/>
	</vehicle>
	<vehicle depart="204.26" departLane="free" departSpeed="max" id="20670" type="HV">
		<route edges="genE296 genE317"/>
	</vehicle>
	<vehicle depart="205.77" departLane="free" departSpeed="max" id="21089" type="HV">
		<route edges="genE316 genE297"/>
	</vehicle>
	<vehicle depart="206.43" departLane="free" departSpeed="max" id="21350" type="HV">
		<route edges="genE316 genE317"/>
	</vehicle>
	<vehicle depart="207.77" departLane="free" departSpeed="max" id="19980" type="HV">
		<route edges="genE318 genE297"/>
	</vehicle>
	<vehicle depart="208.33" departLane="free" departSpeed="max" id="21054" type="CV">
		<route edges="genE316 genE297"/>
	</vehicle>
	<vehicle depart="216.94" departLane="free" departSpeed="max" id="20612" type="HV">
		<route edges="genE296 genE317"/>
	</vehicle>
	<vehicle depart="220.06" departLane="free" departSpeed="max" id="20258" type="CV">
		<route edges="genE296 genE307"/>
	</vehicle>
	<vehicle depart="225.16" departLane="free" departSpeed="max" id="21237" type="HV">
		<route edges="genE316 genE317"/>
	</vehicle>
	<vehicle depart="225.49" departLane="free" departSpeed="max" id="21056" type="HV">
		<route edges="genE316 genE297"/>
	</vehicle>
	<vehicle depart="226.19" departLane="free" departSpeed="max" id="19937" type="HV">
		<route edges="genE318 genE297"/>
	</vehicle>
	<vehicle depart="234.47" departLane="free" departSpeed="max" id="20363" type="HV">
		<route edges="genE296 genE307"/>
	</vehicle>
	<vehicle depart="237.48" departLane="free" departSpeed="max" id="20412" type="HV">
		<route edges="genE296 genE307"/>
	</vehicle>
	<vehicle depart="239.87" departLane="free" departSpeed="max" id="21087" type="HV">
		<route edges="genE316 genE297"/>
	</vehicle>
	<vehicle depart="239.9" departLane="free" departSpeed="max" id="20134" type="HV">
		<route edges="genE318 genE307"/>
	</vehicle>
	<vehicle depart="240.2" departLane="free" departSpeed="max" id="20164" type="HV">
		<route edges="genE318 genE307"/>
	</vehicle>
	<vehicle depart="248.18" departLane="free" departSpeed="max" id="20711" type="CV">
		<route edges="genE296 genE317"/>
	</vehicle>
	<vehicle depart="249.88" departLane="free" departSpeed="max" id="20751" type="HV">
		<route edges="genE296 genE317"/>
	</vehicle>
	<vehicle depart="253.29" departLane="free" departSpeed="max" id="20209" type="HV">
		<route edges="genE318 genE307"/>
	</vehicle>
	<vehicle depart="259.7" departLane="free" departSpeed="max" id="21190" type="HV">
		<route edges="genE316 genE317"/>
	</vehicle>
	<vehicle depart="260.46" departLane="free" departSpeed="max" id="21278" type="HV">
		<route edges="genE316 genE317"/>
	</vehicle>
	<vehicle depart="265.12" departLane="free" departSpeed="max" id="21408" type="HV">
		<route edges="genE316 genE317"/>
	</vehicle>
	<vehicle depart="266.0" departLane="free" departSpeed="max" id="20393" type="HV">
		<route edges="genE296 genE307"/>
	</vehicle>
	<vehicle depart="269.13" departLane="free" departSpeed="max" id="20328" type="CV">
		<route edges="genE296 genE307"/>
	</vehicle>
	<vehicle depart="275.5" departLane="free" departSpeed="max" id="20221" type="HV">
		<route edges="genE318 genE307"/>
	</vehicle>
	<vehicle depart="280.24" departLane="free" departSpeed="max" id="20147" type="HV">
		<route edges="genE318 genE307"/>
	</vehicle>
	<vehicle depart="280.31" departLane="free" departSpeed="max" id="20657" type="HV">
		<route edges="genE296 genE317"/>
	</vehicle>
	<vehicle depart="280.61" departLane="free" departSpeed="max" id="20305" type="HV">
		<route edges="genE296 genE307"/>
	</vehicle>
	<vehicle depart="286.02" departLane="free" departSpeed="max" id="20095" type="HV">
		<route edges="genE318 genE307"/>
	</vehicle>
	<vehicle depart="286.14" departLane="free" departSpeed="max" id="20931" type="HV">
		<route edges="genE316 genE297"/>
	</vehicle>
	<vehicle depart="288.16" departLane="free" departSpeed="max" id="20009" type="HV">
		<route edges="genE318 genE307"/>
	</vehicle>
	<vehicle depart="289.04" departLane="free" departSpeed="max" id="21229" type="HV">
		<route edges="genE316 genE317"/>
	</vehicle>
	<vehicle depart="289.13" departLane="free" departSpeed="max" id="20436" type="HV">
		<route edges="genE296 genE307"/>
	</vehicle>
	<vehicle depart="290.23" departLane="free" departSpeed="max" id="21308" type="HV">
		<route edges="genE316 genE317"/>
	</vehicle>
	<vehicle depart="291.73" departLane="free" departSpeed="max" id="21218" type="HV">
		<route edges="genE316 genE317"/>
	</vehicle>
	<vehicle depart="295.11" departLane="free" departSpeed="max" id="19887" type="CV">
		<route edges="genE318 genE297"/>
	</vehicle>
	<vehicle depart="296.59" departLane="free" departSpeed="max" id="20176" type="HV">
		<route edges="genE318 genE307"/>
	</vehicle>
	<vehicle depart="297.07" departLane="free" departSpeed="max" id="19989" type="HV">
		<route edges="genE318 genE297"/>
	</vehicle>
	<vehicle depart="300.1" departLane="free" departSpeed="max" id="19950" type="HV">
		<route edges="genE318 genE297"/>
	</vehicle>
	<vehicle depart="301.38" departLane="free" departSpeed="max" id="20020" type="HV">
		<route edges="genE318 genE307"/>
	</vehicle>
	<vehicle depart="303.42" departLane="free" departSpeed="max" id="20659" type="HV">
		<route edges="genE296 genE317"/>
	</vehicle>
	<vehicle depart="309.32" departLane="free" departSpeed="max" id="20456" type="HV">
		<route edges="genE296 genE307"/>
	</vehicle>
	<vehicle depart="309.92" departLane="free" departSpeed="max" id="20593" type="HV">
		<route edges="genE296 genE317"/>
	</vehicle>
	<vehicle depart="314.44" departLane="free" departSpeed="max" id="19910" type="HV">
		<route edges="genE318 genE297"/>
	</vehicle>
	<vehicle depart="314.48" departLane="free" departSpeed="max" id="20669" type="HV">
		<route edges="genE296 genE317"/>
	</vehicle>
	<vehicle depart="317.14" departLane="free" departSpeed="max" id="20118" type="HV">
		<route edges="genE318 genE307"/>
	</vehicle>
	<vehicle depart="317.58" departLane="free" departSpeed="max" id="20472" type="CV">
		<route edges="genE296 genE307"/>
	</vehicle>
	<vehicle depart="319.36" departLane="free" departSpeed="max" id="20858" type="HV">
		<route edges="genE316 genE297"/>
	</vehicle>
	<vehicle depart="320.29" departLane="free" departSpeed="max" id="20647" type="CV">
		<route edges="genE296 genE317"/>
	</vehicle>
	<vehicle depart="320.31" departLane="free" departSpeed="max" id="21244" type="HV">
		<route edges="genE316 genE317"/>
	</vehicle>
	<vehicle depart="327.37" departLane="free" departSpeed="max" id="20516" type="HV">
		<route edges="genE296 genE317"/>
	</vehicle>
	<vehicle depart="330.11" departLane="free" departSpeed="max" id="21053" type="HV">
		<route edges="genE316 genE297"/>
	</vehicle>
	<vehicle depart="330.54" departLane="free" departSpeed="max" id="20876" type="HV">
		<route edges="genE316 genE297"/>
	</vehicle>
	<vehicle depart="330.64" departLane="free" departSpeed="max" id="20218" type="CV">
		<route edges="genE318 genE307"/>
	</vehicle>
	<vehicle depart="332.98" departLane="free" departSpeed="max" id="20912" type="HV">
		<route edges="genE316 genE297"/>
	</vehicle>
	<vehicle depart="334.58" departLane="free" departSpeed="max" id="20174" type="HV">
		<route edges="genE318 genE307"/>
	</vehicle>
	<vehicle depart="335.48" departLane="free" departSpeed="max" id="20497" type="HV">
		<route edges="genE296 genE307"/>
	</vehicle>
	<vehicle depart="338.07" departLane="free" departSpeed="max" id="21360" type="CV">
		<route edges="genE316 genE317"/>
	</vehicle>
	<vehicle depart="338.55" departLane="free" departSpeed="max" id="20288" type="HV">
		<route edges="genE296 genE307"/>
	</vehicle>
	<vehicle depart="340.97" departLane="free" departSpeed="max" id="20662" type="HV">
		<route edges="genE296 genE317"/>
	</vehicle>
	<vehicle depart="344.97" departLane="free" departSpeed="max" id="20513" type="HV">
		<route edges="genE296 genE307"/>
	</vehicle>
	<vehicle depart="346.53" departLane="free" departSpeed="max" id="20794" type="HV">
		<route edges="genE296 genE317"/>
	</vehicle>
	<vehicle depart="346.94" departLane="free" departSpeed="max" id="21262" type="CV">
		<route edges="genE316 genE317"/>
	</vehicle>
	<vehicle depart="347.37" departLane="free" departSpeed="max" id="20378" type="CV">
		<route edges="genE296 genE307"/>
	</vehicle>
	<vehicle depart="349.6" departLane="free" departSpeed="max" id="20355" type="HV">
		<route edges="genE296 genE307"/>
	</vehicle>
	<vehicle depart="353.05" departLane="free" departSpeed="max" id="20478" type="CV">
		<route edges="genE296 genE307"/>
	</vehicle>
	<vehicle depart="353.56" departLane="free" departSpeed="max" id="21355" type="CV">
		<route edges="genE316 genE317"/>
	</vehicle>
	<vehicle depart="359.76" departLane="free" departSpeed="max" id="20295" type="HV">
		<route edges="genE296 genE307"/>
	</vehicle>
	<vehicle depart="362.76" departLane="free" departSpeed="max" id="20546" type="CV">
		<route edges="genE296 genE317"/>
	</vehicle>
	<vehicle depart="364.49" departLane="free" departSpeed="max" id="20103" type="HV">
		<route edges="genE318 genE307"/>
	</vehicle>
	<vehicle depart="365.91" departLane="free" departSpeed="max" id="20805" type="HV">
		<route edges="genE296 genE317"/>
	</vehicle>
	<vehicle depart="370.62" departLane="free" departSpeed="max" id="19885" type="HV">
		<route edges="genE318 genE297"/>
	</vehicle>
	<vehicle depart="371.93" departLane="free" departSpeed="max" id="20487" type="HV">
		<route edges="genE296 genE307"/>
	</vehicle>
	<vehicle depart="372.77" departLane="free" departSpeed="max" id="21030" type="CV">
		<route edges="genE316 genE297"/>
	</vehicle>
	<vehicle depart="375.73" departLane="free" departSpeed="max" id="19902" type="HV">
		<route edges="genE318 genE297"/>
	</vehicle>
	<vehicle depart="376.53" departLane="free" departSpeed="max" id="21078" type="HV">
		<route edges="genE316 genE297"/>
	</vehicle>
	<vehicle depart="376.76" departLane="free" departSpeed="max" id="20831" type="HV">
		<route edges="genE296 genE317"/>
	</vehicle>
	<vehicle depart="379.21" departLane="free" departSpeed="max" id="20672" type="HV">
		<route edges="genE296 genE317"/>
	</vehicle>
	<vehicle depart="380.17" departLane="free" departSpeed="max" id="20152" type="HV">
		<route edges="genE318 genE307"/>
	</vehicle>
	<vehicle depart="383.28" departLane="free" departSpeed="max" id="20235" type="HV">
		<route edges="genE296 genE307"/>
	</vehicle>
	<vehicle depart="385.77" departLane="free" departSpeed="max" id="20686" type="HV">
		<route edges="genE296 genE317"/>
	</vehicle>
	<vehicle depart="386.32" departLane="free" departSpeed="max" id="21225" type="HV">
		<route edges="genE316 genE317"/>
	</vehicle>
	<vehicle depart="390.25" departLane="free" departSpeed="max" id="20132" type="HV">
		<route edges="genE318 genE307"/>
	</vehicle>
	<vehicle depart="392.61" departLane="free" departSpeed="max" id="20607" type="HV">
		<route edges="genE296 genE317"/>
	</vehicle>
	<vehicle depart="395.72" departLane="free" departSpeed="max" id="20465" type="CV">
		<route edges="genE296 genE307"/>
	</vehicle>
	<vehicle depart="396.58" departLane="free" departSpeed="max" id="21068" type="CV">
		<route edges="genE316 genE297"/>
	</vehicle>
	<vehicle depart="397.33" departLane="free" departSpeed="max" id="20008" type="HV">
		<route edges="genE318 genE307"/>
	</vehicle>
	<vehicle depart="398.55" departLane="free" departSpeed="max" id="20942" type="HV">
		<route edges="genE316 genE297"/>
	</vehicle>
	<vehicle depart="404.23" departLane="free" departSpeed="max" id="20599" type="CV">
		<route edges="genE296 genE317"/>
	</vehicle>
	<vehicle depart="409.25" departLane="free" departSpeed="max" id="20399" type="HV">
		<route edges="genE296 genE307"/>
	</vehicle>
	<vehicle depart="413.91" departLane="free" departSpeed="max" id="20666" type="HV">
		<route edges="genE296 genE317"/>
	</vehicle>
	<vehicle depart="414.42" departLane="free" departSpeed="max" id="21047" type="HV">
		<route edges="genE316 genE297"/>
	</vehicle>
	<vehicle depart="416.61" departLane="free" departSpeed="max" id="21138" type="CV">
		<route edges="genE316 genE297"/>
	</vehicle>
	<vehicle depart="416.76" departLane="free" departSpeed="max" id="21357" type="HV">
		<route edges="genE316 genE317"/>
	</vehicle>
	<vehicle depart="417.98" departLane="free" departSpeed="max" id="20423" type="HV">
		<route edges="genE296 genE307"/>
	</vehicle>
	<vehicle depart="422.03" departLane="free" departSpeed="max" id="21066" type="CV">
		<route edges="genE316 genE297"/>
	</vehicle>
	<vehicle depart="424.8" departLane="free" departSpeed="max" id="21194" type="HV">
		<route edges="genE316 genE317"/>
	</vehicle>
	<vehicle depart="424.88" departLane="free" departSpeed="max" id="21198" type="HV">
		<route edges="genE316 genE317"/>
	</vehicle>
	<vehicle depart="428.24" departLane="free" departSpeed="max" id="21209" type="HV">
		<route edges="genE316 genE317"/>
	</vehicle>
	<vehicle depart="429.44" departLane="free" departSpeed="max" id="20822" type="HV">
		<route edges="genE296 genE317"/>
	</vehicle>
	<vehicle depart="430.47" departLane="free" departSpeed="max" id="20980" type="HV">
		<route edges="genE316 genE297"/>
	</vehicle>
	<vehicle depart="433.88" departLane="free" departSpeed="max" id="20401" type="HV">
		<route edges="genE296 genE307"/>
	</vehicle>
	<vehicle depart="438.23" departLane="free" departSpeed="max" id="19923" type="HV">
		<route edges="genE318 genE297"/>
	</vehicle>
	<vehicle depart="438.5" departLane="free" departSpeed="max" id="21105" type="HV">
		<route edges="genE316 genE297"/>
	</vehicle>
	<vehicle depart="441.48" departLane="free" departSpeed="max" id="21343" type="HV">
		<route edges="genE316 genE317"/>
	</vehicle>
	<vehicle depart="444.17" departLane="free" departSpeed="max" id="20613" type="HV">
		<route edges="genE296 genE317"/>
	</vehicle>
	<vehicle depart="445.25" departLane="free" departSpeed="max" id="21307" type="HV">
		<route edges="genE316 genE317"/>
	</vehicle>
	<vehicle depart="446.32" departLane="free" departSpeed="max" id="20605" type="HV">
		<route edges="genE296 genE317"/>
	</vehicle>
	<vehicle depart="448.14" departLane="free" departSpeed="max" id="20867" type="HV">
		<route edges="genE316 genE297"/>
	</vehicle>
	<vehicle depart="448.73" departLane="free" departSpeed="max" id="21154" type="CV">
		<route edges="genE316 genE297"/>
	</vehicle>
	<vehicle depart="453.51" departLane="free" departSpeed="max" id="20141" type="HV">
		<route edges="genE318 genE307"/>
	</vehicle>
	<vehicle depart="454.15" departLane="free" departSpeed="max" id="20082" type="CV">
		<route edges="genE318 genE307"/>
	</vehicle>
	<vehicle depart="457.97" departLane="free" departSpeed="max" id="20678" type="HV">
		<route edges="genE296 genE317"/>
	</vehicle>
	<vehicle depart="459.27" departLane="free" departSpeed="max" id="20149" type="HV">
		<route edges="genE318 genE307"/>
	</vehicle>
	<vehicle depart="459.96" departLane="free" departSpeed="max" id="20237" type="HV">
		<route edges="genE296 genE307"/>
	</vehicle>
	<vehicle depart="461.63" departLane="free" departSpeed="max" id="20951" type="HV">
		<route edges="genE316 genE297"/>
	</vehicle>
	<vehicle depart="461.75" departLane="free" departSpeed="max" id="20140" type="HV">
		<route edges="genE318 genE307"/>
	</vehicle>
	<vehicle depart="462.42" departLane="free" departSpeed="max" id="20841" type="HV">
		<route edges="genE316 genE297"/>
	</vehicle>
	<vehicle depart="463.15" departLane="free" departSpeed="max" id="20569" type="HV">
		<route edges="genE296 genE317"/>
	</vehicle>
	<vehicle depart="463.52" departLane="free" departSpeed="max" id="20424" type="HV">
		<route edges="genE296 genE307"/>
	</vehicle>
	<vehicle depart="465.15" departLane="free" departSpeed="max" id="20884" type="HV">
		<route edges="genE316 genE297"/>
	</vehicle>
	<vehicle depart="465.35" departLane="free" departSpeed="max" id="20154" type="HV">
		<route edges="genE318 genE307"/>
	</vehicle>
	<vehicle depart="465.41" departLane="free" departSpeed="max" id="21070" type="HV">
		<route edges="genE316 genE297"/>
	</vehicle>
	<vehicle depart="465.48" departLane="free" departSpeed="max" id="20324" type="CV">
		<route edges="genE296 genE307"/>
	</vehicle>
	<vehicle depart="466.67" departLane="free" departSpeed="max" id="20303" type="CV">
		<route edges="genE296 genE307"/>
	</vehicle>
	<vehicle depart="469.43" departLane="free" departSpeed="max" id="21003" type="CV">
		<route edges="genE316 genE297"/>
	</vehicle>
	<vehicle depart="470.08" departLane="free" departSpeed="max" id="19928" type="HV">
		<route edges="genE318 genE297"/>
	</vehicle>
	<vehicle depart="471.25" departLane="free" departSpeed="max" id="20418" type="HV">
		<route edges="genE296 genE307"/>
	</vehicle>
	<vehicle depart="474.57" departLane="free" departSpeed="max" id="21125" type="HV">
		<route edges="genE316 genE297"/>
	</vehicle>
	<vehicle depart="477.04" departLane="free" departSpeed="max" id="20033" type="HV">
		<route edges="genE318 genE307"/>
	</vehicle>
	<vehicle depart="481.84" departLane="free" departSpeed="max" id="20052" type="HV">
		<route edges="genE318 genE307"/>
	</vehicle>
	<vehicle depart="483.57" departLane="free" departSpeed="max" id="19993" type="HV">
		<route edges="genE318 genE297"/>
	</vehicle>
	<vehicle depart="484.39" departLane="free" departSpeed="max" id="21177" type="HV">
		<route edges="genE316 genE317"/>
	</vehicle>
	<vehicle depart="484.79" departLane="free" departSpeed="max" id="20293" type="HV">
		<route edges="genE296 genE307"/>
	</vehicle>
	<vehicle depart="487.51" departLane="free" departSpeed="max" id="20375" type="CV">
		<route edges="genE296 genE307"/>
	</vehicle>
	<vehicle depart="487.71" departLane="free" departSpeed="max" id="20966" type="CV">
		<route edges="genE316 genE297"/>
	</vehicle>
	<vehicle depart="489.7" departLane="free" departSpeed="max" id="21236" type="CV">
		<route edges="genE316 genE317"/>
	</vehicle>
	<vehicle depart="490.42" departLane="free" departSpeed="max" id="20890" type="HV">
		<route edges="genE316 genE297"/>
	</vehicle>
	<vehicle depart="490.47" departLane="free" departSpeed="max" id="20326" type="CV">
		<route edges="genE296 genE307"/>
	</vehicle>
	<vehicle depart="493.0" departLane="free" departSpeed="max" id="20067" type="HV">
		<route edges="genE318 genE307"/>
	</vehicle>