<?xml version="1.0" ?>
<routes>
	<vType accel="0.8" decel="4.5" id="CV" length="5" maxSpeed="45" sigma="0.5"/>
	<vType accel="0.8" decel="4.5" id="HV" length="5" maxSpeed="40" sigma="0.5"/>
	<vehicle depart="10.87" departLane="free" departSpeed="max" id="2246" type="HV">
		<route edges="genE316 genE297"/>
	</vehicle>
	<vehicle depart="11.57" departLane="free" departSpeed="max" id="2369" type="HV">
		<route edges="genE316 genE317"/>
	</vehicle>
	<vehicle depart="14.07" departLane="free" departSpeed="max" id="1573" type="HV">
		<route edges="genE318 genE307"/>
	</vehicle>
	<vehicle depart="21.76" departLane="free" departSpeed="max" id="1591" type="HV">
		<route edges="genE318 genE307"/>
	</vehicle>
	<vehicle depart="25.86" departLane="free" departSpeed="max" id="1767" type="HV">
		<route edges="genE296 genE307"/>
	</vehicle>
	<vehicle depart="35.0" departLane="free" departSpeed="max" id="1744" type="HV">
		<route edges="genE296 genE307"/>
	</vehicle>
	<vehicle depart="37.22" departLane="free" departSpeed="max" id="2360" type="HV">
		<route edges="genE316 genE317"/>
	</vehicle>
	<vehicle depart="49.06" departLane="free" departSpeed="max" id="2378" type="HV">
		<route edges="genE316 genE317"/>
	</vehicle>
	<vehicle depart="49.22" departLane="free" departSpeed="max" id="2334" type="HV">
		<route edges="genE316 genE317"/>
	</vehicle>
	<vehicle depart="51.33" departLane="free" departSpeed="max" id="1439" type="HV">
		<route edges="genE318 genE297"/>
	</vehicle>
	<vehicle depart="53.94" departLane="free" departSpeed="max" id="1669" type="HV">
		<route edges="genE296 genE307"/>
	</vehicle>
	<vehicle depart="55.13" departLane="free" departSpeed="max" id="1942" type="HV">
		<route edges="genE296 genE317"/>
	</vehicle>
	<vehicle depart="56.27" departLane="free" departSpeed="max" id="1864" type="HV">
		<route edges="genE296 genE317"/>
	</vehicle>
	<vehicle depart="64.13" departLane="free" departSpeed="max" id="2175" type="HV">
		<route edges="genE316 genE297"/>
	</vehicle>
	<vehicle depart="65.23" departLane="free" departSpeed="max" id="1863" type="CV">
		<route edges="genE296 genE317"/>
	</vehicle>
	<vehicle depart="66.73" departLane="free" departSpeed="max" id="1549" type="HV">
		<route edges="genE318 genE307"/>
	</vehicle>
	<vehicle depart="66.85" departLane="free" departSpeed="max" id="2400" type="HV">
		<route edges="genE316 genE317"/>
	</vehicle>
	<vehicle depart="70.69" departLane="free" departSpeed="max" id="1821" type="HV">
		<route edges="genE296 genE307"/>
	</vehicle>
	<vehicle depart="77.29" departLane="free" departSpeed="max" id="2361" type="HV">
		<route edges="genE316 genE317"/>
	</vehicle>
	<vehicle depart="101.87" departLane="free" departSpeed="max" id="1687" type="HV">
		<route edges="genE296 genE307"/>
	</vehicle>
	<vehicle depart="103.47" departLane="free" departSpeed="max" id="1902" type="HV">
		<route edges="genE296 genE317"/>
	</vehicle>
	<vehicle depart="103.83" departLane="free" departSpeed="max" id="1625" type="HV">
		<route edges="genE318 genE307"/>
	</vehicle>
	<vehicle depart="105.24" departLane="free" departSpeed="max" id="1752" type="HV">
		<route edges="genE296 genE307"/>
	</vehicle>
	<vehicle depart="113.22" departLane="free" departSpeed="max" id="1644" type="HV">
		<route edges="genE318 genE307"/>
	</vehicle>
	<vehicle depart="121.15" departLane="free" departSpeed="max" id="1943" type="HV">
		<route edges="genE296 genE317"/>
	</vehicle>
	<vehicle depart="121.91" departLane="free" departSpeed="max" id="1827" type="HV">
		<route edges="genE296 genE307"/>
	</vehicle>
	<vehicle depart="128.15" departLane="free" departSpeed="max" id="1572" type="HV">
		<route edges="genE318 genE307"/>
	</vehicle>
	<vehicle depart="128.51" departLane="free" departSpeed="max" id="1659" type="HV">
		<route edges="genE296 genE307"/>
	</vehicle>
	<vehicle depart="136.02" departLane="free" departSpeed="max" id="1642" type="HV">
		<route edges="genE318 genE307"/>
	</vehicle>
	<vehicle depart="146.43" departLane="free" departSpeed="max" id="1568" type="CV">
		<route edges="genE318 genE307"/>
	</vehicle>
	<vehicle depart="154.57" departLane="free" departSpeed="max" id="1837" type="HV">
		<route edges="genE296 genE307"/>
	</vehicle>
	<vehicle depart="154.88" departLane="free" departSpeed="max" id="1541" type="HV">
		<route edges="genE318 genE307"/>
	</vehicle>
	<vehicle depart="162.42" departLane="free" departSpeed="max" id="2047" type="HV">
		<route edges="genE296 genE317"/>
	</vehicle>
	<vehicle depart="168.45" departLane="free" departSpeed="max" id="2420" type="HV">
		<route edges="genE316 genE317"/>
	</vehicle>
	<vehicle depart="168.69" departLane="free" departSpeed="max" id="1455" type="HV">
		<route edges="genE318 genE297"/>
	</vehicle>
	<vehicle depart="168.94" departLane="free" departSpeed="max" id="2383" type="HV">
		<route edges="genE316 genE317"/>
	</vehicle>
	<vehicle depart="169.37" departLane="free" departSpeed="max" id="1675" type="HV">
		<route edges="genE296 genE307"/>
	</vehicle>
	<vehicle depart="180.41" departLane="free" departSpeed="max" id="2398" type="HV">
		<route edges="genE316 genE317"/>
	</vehicle>
	<vehicle depart="181.97" departLane="free" departSpeed="max" id="1634" type="HV">
		<route edges="genE318 genE307"/>
	</vehicle>
	<vehicle depart="183.21" departLane="free" departSpeed="max" id="1901" type="HV">
		<route edges="genE296 genE317"/>
	</vehicle>
	<vehicle depart="186.07" departLane="free" departSpeed="max" id="1808" type="HV">
		<route edges="genE296 genE307"/>
	</vehicle>
	<vehicle depart="204.65" departLane="free" departSpeed="max" id="2126" type="HV">
		<route edges="genE316 genE297"/>
	</vehicle>
	<vehicle depart="211.37" departLane="free" departSpeed="max" id="2144" type="HV">
		<route edges="genE316 genE297"/>
	</vehicle>
	<vehicle depart="211.66" departLane="free" departSpeed="max" id="1552" type="HV">
		<route edges="genE318 genE307"/>
	</vehicle>
	<vehicle depart="217.22" departLane="free" departSpeed="max" id="1582" type="HV">
		<route edges="genE318 genE307"/>
	</vehicle>
	<vehicle depart="217.88" departLane="free" departSpeed="max" id="1453" type="HV">
		<route edges="genE318 genE297"/>
	</vehicle>
	<vehicle depart="223.59" departLane="free" departSpeed="max" id="1753" type="HV">
		<route edges="genE296 genE307"/>
	</vehicle>
	<vehicle depart="224.98" departLane="free" departSpeed="max" id="1681" type="HV">
		<route edges="genE296 genE307"/>
	</vehicle>
	<vehicle depart="227.42" departLane="free" departSpeed="max" id="1737" type="HV">
		<route edges="genE296 genE307"/>
	</vehicle>
	<vehicle depart="228.56" departLane="free" departSpeed="max" id="2143" type="HV">
		<route edges="genE316 genE297"/>
	</vehicle>
	<vehicle depart="229.31" departLane="free" departSpeed="max" id="1961" type="HV">
		<route edges="genE296 genE317"/>
	</vehicle>
	<vehicle depart="231.34" departLane="free" departSpeed="max" id="2335" type="HV">
		<route edges="genE316 genE317"/>
	</vehicle>
	<vehicle depart="236.0" departLane="free" departSpeed="max" id="2123" type="HV">
		<route edges="genE316 genE297"/>
	</vehicle>
	<vehicle depart="239.05" departLane="free" departSpeed="max" id="1940" type="HV">
		<route edges="genE296 genE317"/>
	</vehicle>
	<vehicle depart="239.19" departLane="free" departSpeed="max" id="2324" type="HV">
		<route edges="genE316 genE317"/>
	</vehicle>
	<vehicle depart="252.05" departLane="free" departSpeed="max" id="1456" type="CV">
		<route edges="genE318 genE297"/>
	</vehicle>
	<vehicle depart="252.62" departLane="free" departSpeed="max" id="2157" type="CV">
		<route edges="genE316 genE297"/>
	</vehicle>
	<vehicle depart="254.6" departLane="free" departSpeed="max" id="1995" type="CV">
		<route edges="genE296 genE317"/>
	</vehicle>
	<vehicle depart="256.64" departLane="free" departSpeed="max" id="2008" type="HV">
		<route edges="genE296 genE317"/>
	</vehicle>
	<vehicle depart="262.65" departLane="free" departSpeed="max" id="1973" type="HV">
		<route edges="genE296 genE317"/>
	</vehicle>
	<vehicle depart="264.43" departLane="free" departSpeed="max" id="1525" type="HV">
		<route edges="genE318 genE307"/>
	</vehicle>
	<vehicle depart="266.44" departLane="free" departSpeed="max" id="1684" type="CV">
		<route edges="genE296 genE307"/>
	</vehicle>
	<vehicle depart="269.71" departLane="free" departSpeed="max" id="1470" type="CV">
		<route edges="genE318 genE297"/>
	</vehicle>
	<vehicle depart="271.6" departLane="free" departSpeed="max" id="2225" type="HV">
		<route edges="genE316 genE297"/>
	</vehicle>
	<vehicle depart="278.2" departLane="free" departSpeed="max" id="2281" type="CV">
		<route edges="genE316 genE317"/>
	</vehicle>
	<vehicle depart="283.8" departLane="free" departSpeed="max" id="1937" type="HV">
		<route edges="genE296 genE317"/>
	</vehicle>
	<vehicle depart="287.53" departLane="free" departSpeed="max" id="1459" type="HV">
		<route edges="genE318 genE297"/>
	</vehicle>
	<vehicle depart="290.88" departLane="free" departSpeed="max" id="1945" type="HV">
		<route edges="genE296 genE317"/>
	</vehicle>
	<vehicle depart="306.26" departLane="free" departSpeed="max" id="2339" type="CV">
		<route edges="genE316 genE317"/>
	</vehicle>
	<vehicle depart="306.58" departLane="free" departSpeed="max" id="2070" type="CV">
		<route edges="genE316 genE297"/>
	</vehicle>
	<vehicle depart="306.87" departLane="free" departSpeed="max" id="2387" type="CV">
		<route edges="genE316 genE317"/>
	</vehicle>
	<vehicle depart="309.25" departLane="free" departSpeed="max" id="2103" type="HV">
		<route edges="genE316 genE297"/>
	</vehicle>
	<vehicle depart="314.94" departLane="free" departSpeed="max" id="2100" type="CV">
		<route edges="genE316 genE297"/>
	</vehicle>
	<vehicle depart="329.1" departLane="free" departSpeed="max" id="1699" type="HV">
		<route edges="genE296 genE307"/>
	</vehicle>
	<vehicle depart="332.4" departLane="free" departSpeed="max" id="2348" type="HV">
		<route edges="genE316 genE317"/>
	</vehicle>
	<vehicle depart="337.06" departLane="free" departSpeed="max" id="2042" type="HV">
		<route edges="genE296 genE317"/>
	</vehicle>
	<vehicle depart="344.7" departLane="free" departSpeed="max" id="1860" type="HV">
		<route edges="genE296 genE317"/>
	</vehicle>
	<vehicle depart="350.81" departLane="free" departSpeed="max" id="1963" type="CV">
		<route edges="genE296 genE317"/>
	</vehicle>
	<vehicle depart="359.12" departLane="free" departSpeed="max" id="1742" type="HV">
		<route edges="genE296 genE307"/>
	</vehicle>
	<vehicle depart="360.05" departLane="free" departSpeed="max" id="2236" type="CV">
		<route edges="genE316 genE297"/>
	</vehicle>
	<vehicle depart="361.68" departLane="free" departSpeed="max" id="2024" type="CV">
		<route edges="genE296 genE317"/>
	</vehicle>
	<vehicle depart="362.16" departLane="free" departSpeed="max" id="2052" type="CV">
		<route edges="genE296 genE317"/>
	</vehicle>
	<vehicle depart="371.32" departLane="free" departSpeed="max" id="2217" type="HV">
		<route edges="genE316 genE297"/>
	</vehicle>
	<vehicle depart="373.06" departLane="free" departSpeed="max" id="1947" type="HV">
		<route edges="genE296 genE317"/>
	</vehicle>
	<vehicle depart="379.37" departLane="free" departSpeed="max" id="1848" type="CV">
		<route edges="genE296 genE307"/>
	</vehicle>
	<vehicle depart="382.95" departLane="free" departSpeed="max" id="1877" type="HV">
		<route edges="genE296 genE317"/>
	</vehicle>
	<vehicle depart="390.56" departLane="free" departSpeed="max" id="2314" type="CV">
		<route edges="genE316 genE317"/>
	</vehicle>
	<vehicle depart="395.35" departLane="free" departSpeed="max" id="2268" type="HV">
		<route edges="genE316 genE297"/>
	</vehicle>
	<vehicle depart="397.81" departLane="free" departSpeed="max" id="1484" type="CV">
		<route edges="genE318 genE297"/>
	</vehicle>
	<vehicle depart="399.92" departLane="free" departSpeed="max" id="1886" type="HV">
		<route edges="genE296 genE317"/>
	</vehicle>
	<vehicle depart="404.33" departLane="free" departSpeed="max" id="2148" type="HV">
		<route edges="genE316 genE297"/>
	</vehicle>
	<vehicle depart="409.09" departLane="free" departSpeed="max" id="2003" type="HV">
		<route edges="genE296 genE317"/>
	</vehicle>
	<vehicle depart="411.79" departLane="free" departSpeed="max" id="2156" type="HV">
		<route edges="genE316 genE297"/>
	</vehicle>
	<vehicle depart="411.86" departLane="free" departSpeed="max" id="2315" type="CV">
		<route edges="genE316 genE317"/>
	</vehicle>
	<vehicle depart="413.29" departLane="free" departSpeed="max" id="1859" type="HV">
		<route edges="genE296 genE317"/>
	</vehicle>
	<vehicle depart="416.17" departLane="free" departSpeed="max" id="2039" type="HV">
		<route edges="genE296 genE317"/>
	</vehicle>
	<vehicle depart="419.43" departLane="free" departSpeed="max" id="2147" type="HV">
		<route edges="genE316 genE297"/>
	</vehicle>
	<vehicle depart="422.97" departLane="free" departSpeed="max" id="2223" type="HV">
		<route edges="genE316 genE297"/>
	</vehicle>
	<vehicle depart="423.52" departLane="free" departSpeed="max" id="2078" type="HV">
		<route edges="genE316 genE297"/>
	</vehicle>
	<vehicle depart="424.52" departLane="free" departSpeed="max" id="2256" type="HV">
		<route edges="genE316 genE297"/>
	</vehicle>
	<vehicle depart="428.77" departLane="free" departSpeed="max" id="2134" type="HV">
		<route edges="genE316 genE297"/>
	</vehicle>
	<vehicle depart="429.64" departLane="free" departSpeed="max" id="1504" type="HV">
		<route edges="genE318 genE297"/>
	</vehicle>
	<vehicle depart="436.63" departLane="free" departSpeed="max" id="2293" type="HV">
		<route edges="genE316 genE317"/>
	</vehicle>
	<vehicle depart="438.58" departLane="free" departSpeed="max" id="1679" type="HV">
		<route edges="genE296 genE307"/>
	</vehicle>
	<vehicle depart="442.72" departLane="free" departSpeed="max" id="2172" type="HV">
		<route edges="genE316 genE297"/>
	</vehicle>
	<vehicle depart="445.14" departLane="free" departSpeed="max" id="1895" type="HV">
		<route edges="genE296 genE317"/>
	</vehicle>
	<vehicle depart="451.86" departLane="free" departSpeed="max" id="2068" type="HV">
		<route edges="genE316 genE297"/>
	</vehicle>
	<vehicle depart="453.92" departLane="free" departSpeed="max" id="2373" type="HV">
		<route edges="genE316 genE317"/>
	</vehicle>
	<vehicle depart="455.06" departLane="free" departSpeed="max" id="1421" type="HV">
		<route edges="genE318 genE297"/>
	</vehicle>
	<vehicle depart="455.46" departLane="free" departSpeed="max" id="2377" type="HV">
		<route edges="genE316 genE317"/>
	</vehicle>
	<vehicle depart="457.42" departLane="free" departSpeed="max" id="2351" type="HV">
		<route edges="genE316 genE317"/>
	</vehicle>
	<vehicle depart="458.93" departLane="free" departSpeed="max" id="2292" type="CV">
		<route edges="genE316 genE317"/>
	</vehicle>
	<vehicle depart="473.53" departLane="free" departSpeed="max" id="1759" type="HV">
		<route edges="genE296 genE307"/>
	</vehicle>
	<vehicle depart="478.75" departLane="free" departSpeed="max" id="1614" type="HV">
		<route edges="genE318 genE307"/>
	</vehicle>
	<vehicle depart="480.98" departLane="free" departSpeed="max" id="1723" type="CV">
		<route edges="genE296 genE307"/>
	</vehicle>
	<vehicle depart="487.09" departLane="free" departSpeed="max" id="1878" type="HV">
		<route edges="genE296 genE317"/>
	</vehicle>
	<vehicle depart="487.44" departLane="free" departSpeed="max" id="1888" type="HV">
		<route edges="genE296 genE317"/>
	</vehicle>
	<vehicle depart="490.24" departLane="free" departSpeed="max" id="1438" type="HV">
		<route edges="genE318 genE297"/>
	</vehicle>
	<vehicle depart="491.22" departLane="free" departSpeed="max" id="2270" type="HV">
		<route edges="genE316 genE297"/>
	</vehicle>
	<vehicle depart="493.0" departLane="free" departSpeed="max" id="1422" type="HV">
		<route edges="genE318 genE297"/>
	</vehicle>
	<vehicle depart="494.47" departLane="free" departSpeed="max" id="2247" type="CV">
		<route edges="genE316 genE297"/>
	</vehicle>
	<vehicle depart="496.2" departLane="free" departSpeed="max" id="2341" type="HV">
		<route edges="genE316 genE317"/>
	</vehicle>
	<vehicle depart="497.81" departLane="free" departSpeed="max" id="1451" type="HV">
		<route edges="genE318 genE297"/>
	</vehicle>
	<vehicle depart="500.77" departLane="free" departSpeed="max" id="1511" type="HV">
		<route edges="genE318 genE307"/>
	</vehicle>
	<vehicle depart="501.82" departLane="free" departSpeed="max" id="1850" type="HV">
		<route edges="genE296 genE317"/>
	</vehicle>
	<vehicle depart="504.4" departLane="free" departSpeed="max" id="2191" type="HV">
		<route edges="genE316 genE297"/>
	</vehicle>
	<vehicle depart="505.5" departLane="free" departSpeed="max" id="2142" type="HV">
		<route edges="genE316 genE297"/>
	</vehicle>
	<vehicle depart="505.51" departLane="free" departSpeed="max" id="2200" type="HV">
		<route edges="genE316 genE297"/>
	</vehicle>
	<vehicle depart="506.67" departLane="free" departSpeed="max" id="1722" type="HV">
		<route edges="genE296 genE307"/>
	</vehicle>
	<vehicle depart="509.31" departLane="free" departSpeed="max" id="1972" type="CV">
		<route edges="genE296 genE317"/>
	</vehicle>
	<vehicle depart="510.54" departLane="free" departSpeed="max" id="1738" type="CV">
		<route edges="genE296 genE307"/>
	</vehicle>
	<vehicle depart="511.61" departLane="free" departSpeed="max" id="2385" type="HV">
		<route edges="genE316 genE317"/>
	</vehicle>
	<vehicle depart="513.95" departLane="free" departSpeed="max" id="1494" type="HV">
		<route edges="genE318 genE297"/>
	</vehicle>
	<vehicle depart="515.52" departLane="free" departSpeed="max" id="2317" type="CV">
		<route edges="genE316 genE317"/>
	</vehicle>
	<vehicle depart="522.49" departLane="free" departSpeed="max" id="1613" type="HV">
		<route edges="genE318 genE307"/>
	</vehicle>
	<vehicle depart="524.28" departLane="free" departSpeed="max" id="1967" type="HV">
		<route edges="genE296 genE317"/>
	</vehicle>
	<vehicle depart="539.56" departLane="free" departSpeed="max" id="1514" type="HV">
		<route edges="genE318 genE307"/>
	</vehicle>
	<vehicle depart="548.82" departLane="free" departSpeed="max" id="2028" type="HV">
		<route edges="genE296 genE317"/>
	</vehicle>
	<vehicle depart="557.3" departLane="free" departSpeed="max" id="2125" type="CV">
		<route edges="genE316 genE297"/>
	</vehicle>
	<vehicle depart="564.63" departLane="free" departSpeed="max" id="1812" type="HV">
		<route edges="genE296 genE307"/>
	</vehicle>
	<vehicle depart="589.4" departLane="free" departSpeed="max" id="1458" type="HV">
		<route edges="genE318 genE297"/>
	</vehicle>
	<vehicle depart="590.57" departLane="free" departSpeed="max" id="1442" type="CV">
		<route edges="genE318 genE297"/>
	</vehicle>
	<vehicle depart="592.13" departLane="free" departSpeed="max" id="2248" type="CV">
		<route edges="genE316 genE297"/>
	</vehicle>
	<vehicle depart="592.32" departLane="free" departSpeed="max" id="1919" type="HV">
		<route edges="genE296 genE317"/>
	</vehicle>
	<vehicle depart="600.96" departLane="free" departSpeed="max" id="2152" type="HV">
		<route edges="genE316 genE297"/>
	</vehicle>
	<vehicle depart="601.05" departLane="free" departSpeed="max" id="1481" type="CV">
		<route edges="genE318 genE297"/>
	</vehicle>
	<vehicle depart="605.12" departLane="free" departSpeed="max" id="1610" type="HV">
		<route edges="genE318 genE307"/>
	</vehicle>
	<vehicle depart="606.98" departLane="free" departSpeed="max" id="1441" type="HV">
		<route edges="genE318 genE297"/>
	</vehicle>
	<vehicle depart="611.39" departLane="free" departSpeed="max" id="1683" type="HV">
		<route edges="genE296 genE307"/>
	</vehicle>
	<vehicle depart="614.94" departLane="free" departSpeed="max" id="1774" type="HV">
		<route edges="genE296 genE307"/>
	</vehicle>
	<vehicle depart="630.04" departLane="free" departSpeed="max" id="1554" type="HV">
		<route edges="genE318 genE307"/>
	</vehicle>
	<vehicle depart="632.2" departLane="free" departSpeed="max" id="1939" type="HV">
		<route edges="genE296 genE317"/>
	</vehicle>
	<vehicle depart="638.06" departLane="free" departSpeed="max" id="2215" type="HV">
		<route edges="genE316 genE297"/>
	</vehicle>
	<vehicle depart="641.61" departLane="free" departSpeed="max" id="2338" type="HV">
		<route edges="genE316 genE317"/>
	</vehicle>
	<vehicle depart="641.68" departLane="free" departSpeed="max" id="2337" type="CV">
		<route edges="genE316 genE317"/>
	</vehicle>
	<vehicle depart="645.27" departLane="free" departSpeed="max" id="1754" type="HV">
		<route edges="genE296 genE307"/>
	</vehicle>
	<vehicle depart="651.56" departLane="free" departSpeed="max" id="2121" type="HV">
		<route edges="genE316 genE297"/>
	</vehicle>
	<vehicle depart="653.77" departLane="free" departSpeed="max" id="1601" type="HV">
		<route edges="genE318 genE307"/>
	</vehicle>
	<vehicle depart="654.63" departLane="free" departSpeed="max" id="1506" type="HV">
		<route edges="genE318 genE297"/>
	</vehicle>
	<vehicle depart="660.45" departLane="free" departSpeed="max" id="1663" type="CV">
		<route edges="genE296 genE307"/>
	</vehicle>
	<vehicle depart="664.2" departLane="free" departSpeed="max" id="2245" type="CV">
		<route edges="genE316 genE297"/>
	</vehicle>
	<vehicle depart="670.49" departLane="free" departSpeed="max" id="2260" type="CV">
		<route edges="genE316 genE297"/>
	</vehicle>
	<vehicle depart="679.44" departLane="free" departSpeed="max" id="2433" type="HV">
		<route edges="genE316 genE317"/>
	</vehicle>
	<vehicle depart="685.84" departLane="free" departSpeed="max" id="2110" type="CV">
		<route edges="genE316 genE297"/>
	</vehicle>
	<vehicle depart="692.27" departLane="free" departSpeed="max" id="2451" type="HV">
		<route edges="genE316 genE317"/>
	</vehicle>
	<vehicle depart="693.26" departLane="free" departSpeed="max" id="1954" type="HV">
		<route edges="genE296 genE317"/>
	</vehicle>
	<vehicle depart="693.96" departLane="free" departSpeed="max" id="1976" type="HV">
		<route edges="genE296 genE317"/>
	</vehicle>
	<vehicle depart="695.21" departLane="free" departSpeed="max" id="2395" type="HV">
		<route edges="genE316 genE317"/>
	</vehicle>
	<vehicle depart="697.57" departLane="free" departSpeed="max" id="1620" type="HV">
		<route edges="genE318 genE307"/>
	</vehicle>
	<vehicle depart="707.49" departLane="free" departSpeed="max" id="1592" type="HV">
		<route edges="genE318 genE307"/>
	</vehicle>
	<vehicle depart="708.09" departLane="free" departSpeed="max" id="2073" type="HV">
		<route edges="genE316 genE297"/>
	</vehicle>
	<vehicle depart="711.57" departLane="free" departSpeed="max" id="2161" type="HV">
		<route edges="genE316 genE297"/>
	</vehicle>
	<vehicle depart="712.18" departLane="free" departSpeed="max" id="2021" type="HV">
		<route edges="genE296 genE317"/>
	</vehicle>
	<vehicle depart="712.61" departLane="free" departSpeed="max" id="2086" type="HV">
		<route edges="genE316 genE297"/>
	</vehicle>
	<vehicle depart="713.07" departLane="free" departSpeed="max" id="1948" type="HV">
		<route edges="genE296 genE317"/>
	</vehicle>
	<vehicle depart="714.25" departLane="free" departSpeed="max" id="2119" type="HV">
		<route edges="genE316 genE297"/>
	</vehicle>
	<vehicle depart="720.4" departLane="free" departSpeed="max" id="1950" type="HV">
		<route edges="genE296 genE317"/>
	</vehicle>
	<vehicle depart="732.12" departLane="free" departSpeed="max" id="1561" type="CV">
		<route edges="genE318 genE307"/>
	</vehicle>
	<vehicle depart="734.16" departLane="free" departSpeed="max" id="2204" type="HV">
		<route edges="genE316 genE297"/>
	</vehicle>
	<vehicle depart="735.9" departLane="free" departSpeed="max" id="2257" type="CV">
		<route edges="genE316 genE297"/>
	</vehicle>
	<vehicle depart="741.27" departLane="free" departSpeed="max" id="2380" type="HV">
		<route edges="genE316 genE317"/>
	</vehicle>
	<vehicle depart="742.59" departLane="free" departSpeed="max" id="2197" type="CV">
		<route edges="genE316 genE297"/>
	</vehicle>
	<vehicle depart="747.24" departLane="free" departSpeed="max" id="1452" type="HV">
		<route edges="genE318 genE297"/>
	</vehicle>
	<vehicle depart="747.99" departLane="free" departSpeed="max" id="1602" type="HV">
		<route edges="genE318 genE307"/>
	</vehicle>
	<vehicle depart="756.03" departLane="free" departSpeed="max" id="1887" type="HV">
		<route edges="genE296 genE317"/>
	</vehicle>
	<vehicle depart="762.01" departLane="free" departSpeed="max" id="1975" type="HV">
		<route edges="genE296 genE317"/>
	</vehicle>
	<vehicle depart="764.56" departLane="free" departSpeed="max" id="2362" type="CV">
		<route edges="genE316 genE317"/>
	</vehicle>
	<vehicle depart="767.21" departLane="free" departSpeed="max" id="1432" type="HV">
		<route edges="genE318 genE297"/>
	</vehicle>
	<vehicle depart="775.41" departLane="free" departSpeed="max" id="2332" type="HV">
		<route edges="genE316 genE317"/>
	</vehicle>
	<vehicle depart="780.36" departLane="free" departSpeed="max" id="1427" type="HV">
		<route edges="genE318 genE297"/>
	</vehicle>
	<vehicle depart="782.45" departLane="free" departSpeed="max" id="2427" type="HV">
		<route edges="genE316 genE317"/>
	</vehicle>
	<vehicle depart="783.27" departLane="free" departSpeed="max" id="1828" type="CV">
		<route edges="genE296 genE307"/>
	</vehicle>
	<vehicle depart="785.61" departLane="free" departSpeed="max" id="1649" type="HV">
		<route edges="genE318 genE307"/>
	</vehicle>
	<vehicle depart="785.92" departLane="free" departSpeed="max" id="1485" type="HV">
		<route edges="genE318 genE297"/>
	</vehicle>
	<vehicle depart="806.57" departLane="free" departSpeed="max" id="2258" type="CV">
		<route edges="genE316 genE297"/>
	</vehicle>
	<vehicle depart="807.47" departLane="free" departSpeed="max" id="1982" type="HV">
		<route edges="genE296 genE317"/>
	</vehicle>
	<vehicle depart="807.99" departLane="free" departSpeed="max" id="2187" type="HV">
		<route edges="genE316 genE297"/>
	</vehicle>
	<vehicle depart="814.81" departLane="free" departSpeed="max" id="2182" type="HV">
		<route edges="genE316 genE297"/>
	</vehicle>
	<vehicle depart="816.98" departLane="free" departSpeed="max" id="1766" type="HV">
		<route edges="genE296 genE307"/>
	</vehicle>
	<vehicle depart="818.69" departLane="free" departSpeed="max" id="1883" type="HV">
		<route edges="genE296 genE317"/>
	</vehicle>
	<vehicle depart="829.97" departLane="free" departSpeed="max" id="2375" type="CV">
		<route edges="genE316 genE317"/>
	</vehicle>
	<vehicle depart="836.58" departLane="free" departSpeed="max" id="1989" type="CV">
		<route edges="genE296 genE317"/>
	</vehicle>
	<vehicle depart="837.02" departLane="free" departSpeed="max" id="1977" type="HV">
		<route edges="genE296 genE317"/>
	</vehicle>
	<vehicle depart="842.17" departLane="free" departSpeed="max" id="2405" type="CV">
		<route edges="genE316 genE317"/>
	</vehicle>
	<vehicle depart="843.49" departLane="free" departSpeed="max" id="1517" type="HV">
		<route edges="genE318 genE307"/>
	</vehicle>
	<vehicle depart="846.43" departLane="free" departSpeed="max" id="1430" type="CV">
		<route edges="genE318 genE297"/>
	</vehicle>
	<vehicle depart="849.2" departLane="free" departSpeed="max" id="1637" type="HV">
		<route edges="genE318 genE307"/>
	</vehicle>
	<vehicle depart="850.07" departLane="free" departSpeed="max" id="2294" type="HV">
		<route edges="genE316 genE317"/>
	</vehicle>
	<vehicle depart="851.9" departLane="free" departSpeed="max" id="2105" type="HV">
		<route edges="genE316 genE297"/>
	</vehicle>
	<vehicle depart="854.19" departLane="free" departSpeed="max" id="2272" type="HV">
		<route edges="genE316 genE297"/>
	</vehicle>
	<vehicle depart="856.75" departLane="free" departSpeed="max" id="1538" type="HV">
		<route edges="genE318 genE307"/>
	</vehicle>
	<vehicle depart="873.7" departLane="free" departSpeed="max" id="1488" type="HV">
		<route edges="genE318 genE297"/>
	</vehicle>
	<vehicle depart="876.52" departLane="free" departSpeed="max" id="1526" type="HV">
		<route edges="genE318 genE307"/>
	</vehicle>
	<vehicle depart="879.22" departLane="free" departSpeed="max" id="1795" type="HV">
		<route edges="genE296 genE307"/>
	</vehicle>
	<vehicle depart="880.88" departLane="free" departSpeed="max" id="1537" type="HV">
		<route edges="genE318 genE307"/>
	</vehicle>
	<vehicle depart="888.23" departLane="free" departSpeed="max" id="2366" type="HV">
		<route edges="genE316 genE317"/>
	</vehicle>
	<vehicle depart="891.97" departLane="free" departSpeed="max" id="1792" type="HV">
		<route edges="genE296 genE307"/>
	</vehicle>
	<vehicle depart="894.6" departLane="free" departSpeed="max" id="1595" type="HV">
		<route edges="genE318 genE307"/>
	</vehicle>
	<vehicle depart="897.9" departLane="free" departSpeed="max" id="1745" type="HV">
		<route edges="genE296 genE307"/>
	</vehicle>
	<vehicle depart="901.41" departLane="free" departSpeed="max" id="1815" type="HV">
		<route edges="genE296 genE307"/>
	</vehicle>
	<vehicle depart="903.21" departLane="free" departSpeed="max" id="1900" type="CV">
		<route edges="genE296 genE317"/>
	</vehicle>
	<vehicle depart="906.95" departLane="free" departSpeed="max" id="1545" type="HV">
		<route edges="genE318 genE307"/>
	</vehicle>
	<vehicle depart="907.72" departLane="free" departSpeed="max" id="1756" type="HV">
		<route edges="genE296 genE307"/>
	</vehicle>
	<vehicle depart="914.89" departLane="free" departSpeed="max" id="1831" type="CV">
		<route edges="genE296 genE307"/>
	</vehicle>
	<vehicle depart="918.06" departLane="free" departSpeed="max" id="1539" type="CV">
		<route edges="genE318 genE307"/>
	</vehicle>
	<vehicle depart="926.02" departLane="free" departSpeed="max" id="2130" type="HV">
		<route edges="genE316 genE297"/>
	</vehicle>
	<vehicle depart="932.04" departLane="free" departSpeed="max" id="1448" type="HV">
		<route edges="genE318 genE297"/>
	</vehicle>
	<vehicle depart="934.14" departLane="free" departSpeed="max" id="1813" type="HV">
		<route edges="genE296 genE307"/>
	</vehicle>
	<vehicle depart="936.37" departLane="free" departSpeed="max" id="1820" type="HV">
		<route edges="genE296 genE307"/>
	</vehicle>
	<vehicle depart="938.44" departLane="free" departSpeed="max" id="2417" type="HV">