<?xml version="1.0" ?>
<routes>
	<vType accel="0.8" decel="4.5" id="CV" length="5" maxSpeed="45" sigma="0.5"/>
	<vType accel="0.8" decel="4.5" id="HV" length="5" maxSpeed="40" sigma="0.5"/>
	<vehicle depart="4.81" departLane="free" departSpeed="max" id="22973" type="HV">
		<route edges="genE316 genE297"/>
	</vehicle>
	<vehicle depart="6.19" departLane="free" departSpeed="max" id="22661" type="HV">
		<route edges="genE296 genE307"/>
	</vehicle>
	<vehicle depart="9.1" departLane="free" departSpeed="max" id="23027" type="HV">
		<route edges="genE316 genE297"/>
	</vehicle>
	<vehicle depart="18.3" departLane="free" departSpeed="max" id="22549" type="CV">
		<route edges="genE318 genE307"/>
	</vehicle>
	<vehicle depart="19.29" departLane="free" departSpeed="max" id="22852" type="HV">
		<route edges="genE296 genE317"/>
	</vehicle>
	<vehicle depart="31.3" departLane="free" departSpeed="max" id="23214" type="HV">
		<route edges="genE316 genE317"/>
	</vehicle>
	<vehicle depart="41.14" departLane="free" departSpeed="max" id="23039" type="CV">
		<route edges="genE316 genE297"/>
	</vehicle>
	<vehicle depart="41.68" departLane="free" departSpeed="max" id="22806" type="HV">
		<route edges="genE296 genE317"/>
	</vehicle>
	<vehicle depart="50.6" departLane="free" departSpeed="max" id="23177" type="HV">
		<route edges="genE316 genE317"/>
	</vehicle>
	<vehicle depart="54.6" departLane="free" departSpeed="max" id="23035" type="HV">
		<route edges="genE316 genE297"/>
	</vehicle>
	<vehicle depart="63.84" departLane="free" departSpeed="max" id="22723" type="HV">
		<route edges="genE296 genE307"/>
	</vehicle>
	<vehicle depart="65.01" departLane="free" departSpeed="max" id="22945" type="HV">
		<route edges="genE316 genE297"/>
	</vehicle>
	<vehicle depart="74.97" departLane="free" departSpeed="max" id="22826" type="HV">
		<route edges="genE296 genE317"/>
	</vehicle>
	<vehicle depart="76.66" departLane="free" departSpeed="max" id="22964" type="HV">
		<route edges="genE316 genE297"/>
	</vehicle>
	<vehicle depart="76.81" departLane="free" departSpeed="max" id="22467" type="HV">
		<route edges="genE318 genE297"/>
	</vehicle>
	<vehicle depart="77.36" departLane="free" departSpeed="max" id="22719" type="HV">
		<route edges="genE296 genE307"/>
	</vehicle>
	<vehicle depart="77.7" departLane="free" departSpeed="max" id="22948" type="HV">
		<route edges="genE316 genE297"/>
	</vehicle>
	<vehicle depart="79.09" departLane="free" departSpeed="max" id="22694" type="HV">
		<route edges="genE296 genE307"/>
	</vehicle>
	<vehicle depart="79.24" departLane="free" departSpeed="max" id="22572" type="HV">
		<route edges="genE318 genE307"/>
	</vehicle>
	<vehicle depart="82.13" departLane="free" departSpeed="max" id="22527" type="HV">
		<route edges="genE318 genE307"/>
	</vehicle>
	<vehicle depart="87.4" departLane="free" departSpeed="max" id="22980" type="CV">
		<route edges="genE316 genE297"/>
	</vehicle>
	<vehicle depart="88.49" departLane="free" departSpeed="max" id="22696" type="HV">
		<route edges="genE296 genE307"/>
	</vehicle>
	<vehicle depart="102.73" departLane="free" departSpeed="max" id="22680" type="HV">
		<route edges="genE296 genE307"/>
	</vehicle>
	<vehicle depart="103.41" departLane="free" departSpeed="max" id="22986" type="HV">
		<route edges="genE316 genE297"/>
	</vehicle>
	<vehicle depart="110.16" departLane="free" departSpeed="max" id="22966" type="HV">
		<route edges="genE316 genE297"/>
	</vehicle>
	<vehicle depart="116.57" departLane="free" departSpeed="max" id="23104" type="HV">
		<route edges="genE316 genE317"/>
	</vehicle>
	<vehicle depart="116.98" departLane="free" departSpeed="max" id="22540" type="HV">
		<route edges="genE318 genE307"/>
	</vehicle>
	<vehicle depart="123.34" departLane="free" departSpeed="max" id="22902" type="HV">
		<route edges="genE296 genE317"/>
	</vehicle>
	<vehicle depart="134.75" departLane="free" departSpeed="max" id="22950" type="CV">
		<route edges="genE316 genE297"/>
	</vehicle>
	<vehicle depart="140.19" departLane="free" departSpeed="max" id="22606" type="HV">
		<route edges="genE318 genE307"/>
	</vehicle>
	<vehicle depart="141.27" departLane="free" departSpeed="max" id="22506" type="CV">
		<route edges="genE318 genE297"/>
	</vehicle>
	<vehicle depart="146.86" departLane="free" departSpeed="max" id="22815" type="HV">
		<route edges="genE296 genE317"/>
	</vehicle>
	<vehicle depart="152.5" departLane="free" departSpeed="max" id="22603" type="HV">
		<route edges="genE318 genE307"/>
	</vehicle>
	<vehicle depart="153.94" departLane="free" departSpeed="max" id="22741" type="CV">
		<route edges="genE296 genE307"/>
	</vehicle>
	<vehicle depart="162.68" departLane="free" departSpeed="max" id="22618" type="CV">
		<route edges="genE318 genE307"/>
	</vehicle>
	<vehicle depart="168.97" departLane="free" departSpeed="max" id="22816" type="HV">
		<route edges="genE296 genE317"/>
	</vehicle>
	<vehicle depart="174.56" departLane="free" departSpeed="max" id="22946" type="HV">
		<route edges="genE316 genE297"/>
	</vehicle>
	<vehicle depart="176.57" departLane="free" departSpeed="max" id="22909" type="HV">
		<route edges="genE296 genE317"/>
	</vehicle>
	<vehicle depart="178.9" departLane="free" departSpeed="max" id="22857" type="HV">
		<route edges="genE296 genE317"/>
	</vehicle>
	<vehicle depart="179.95" departLane="free" departSpeed="max" id="22740" type="CV">
		<route edges="genE296 genE307"/>
	</vehicle>
	<vehicle depart="183.56" departLane="free" departSpeed="max" id="22728" type="HV">
		<route edges="genE296 genE307"/>
	</vehicle>
	<vehicle depart="185.29" departLane="free" departSpeed="max" id="22597" type="HV">
		<route edges="genE318 genE307"/>
	</vehicle>
	<vehicle depart="186.08" departLane="free" departSpeed="max" id="22853" type="HV">
		<route edges="genE296 genE317"/>
	</vehicle>
	<vehicle depart="187.53" departLane="free" departSpeed="max" id="22505" type="HV">
		<route edges="genE318 genE297"/>
	</vehicle>
	<vehicle depart="193.61" departLane="free" departSpeed="max" id="22552" type="HV">
		<route edges="genE318 genE307"/>
	</vehicle>
	<vehicle depart="212.33" departLane="free" departSpeed="max" id="22797" type="HV">
		<route edges="genE296 genE317"/>
	</vehicle>
	<vehicle depart="213.91" departLane="free" departSpeed="max" id="22774" type="HV">
		<route edges="genE296 genE307"/>
	</vehicle>
	<vehicle depart="215.35" departLane="free" departSpeed="max" id="22847" type="HV">
		<route edges="genE296 genE317"/>
	</vehicle>
	<vehicle depart="230.59" departLane="free" departSpeed="max" id="22635" type="HV">
		<route edges="genE296 genE307"/>
	</vehicle>
	<vehicle depart="234.33" departLane="free" departSpeed="max" id="22778" type="HV">
		<route edges="genE296 genE317"/>
	</vehicle>
	<vehicle depart="235.24" departLane="free" departSpeed="max" id="22702" type="HV">
		<route edges="genE296 genE307"/>
	</vehicle>
	<vehicle depart="246.16" departLane="free" departSpeed="max" id="23211" type="HV">
		<route edges="genE316 genE317"/>
	</vehicle>
	<vehicle depart="253.55" departLane="free" departSpeed="max" id="22643" type="HV">
		<route edges="genE296 genE307"/>
	</vehicle>
	<vehicle depart="253.81" departLane="free" departSpeed="max" id="23153" type="HV">
		<route edges="genE316 genE317"/>
	</vehicle>
	<vehicle depart="263.39" departLane="free" departSpeed="max" id="22545" type="HV">
		<route edges="genE318 genE307"/>
	</vehicle>
	<vehicle depart="268.84" departLane="free" departSpeed="max" id="22571" type="HV">
		<route edges="genE318 genE307"/>
	</vehicle>
	<vehicle depart="272.55" departLane="free" departSpeed="max" id="22647" type="HV">
		<route edges="genE296 genE307"/>
	</vehicle>
	<vehicle depart="275.84" departLane="free" departSpeed="max" id="22565" type="HV">
		<route edges="genE318 genE307"/>
	</vehicle>
	<vehicle depart="276.76" departLane="free" departSpeed="max" id="23095" type="HV">
		<route edges="genE316 genE297"/>
	</vehicle>
	<vehicle depart="278.73" departLane="free" departSpeed="max" id="23175" type="HV">
		<route edges="genE316 genE317"/>
	</vehicle>
	<vehicle depart="280.98" departLane="free" departSpeed="max" id="23090" type="HV">
		<route edges="genE316 genE297"/>
	</vehicle>
	<vehicle depart="287.8" departLane="free" departSpeed="max" id="22671" type="CV">
		<route edges="genE296 genE307"/>
	</vehicle>
	<vehicle depart="294.2" departLane="free" departSpeed="max" id="23181" type="HV">
		<route edges="genE316 genE317"/>
	</vehicle>
	<vehicle depart="296.84" departLane="free" departSpeed="max" id="22880" type="HV">
		<route edges="genE296 genE317"/>
	</vehicle>
	<vehicle depart="301.63" departLane="free" departSpeed="max" id="22712" type="HV">
		<route edges="genE296 genE307"/>
	</vehicle>
	<vehicle depart="304.5" departLane="free" departSpeed="max" id="22537" type="HV">
		<route edges="genE318 genE307"/>
	</vehicle>
	<vehicle depart="312.02" departLane="free" departSpeed="max" id="22746" type="HV">
		<route edges="genE296 genE307"/>
	</vehicle>
	<vehicle depart="314.17" departLane="free" departSpeed="max" id="23049" type="CV">
		<route edges="genE316 genE297"/>
	</vehicle>
	<vehicle depart="321.97" departLane="free" departSpeed="max" id="22483" type="CV">
		<route edges="genE318 genE297"/>
	</vehicle>
	<vehicle depart="326.5" departLane="free" departSpeed="max" id="22502" type="HV">
		<route edges="genE318 genE297"/>
	</vehicle>
	<vehicle depart="336.97" departLane="free" departSpeed="max" id="22589" type="CV">
		<route edges="genE318 genE307"/>
	</vehicle>
	<vehicle depart="339.04" departLane="free" departSpeed="max" id="23139" type="CV">
		<route edges="genE316 genE317"/>
	</vehicle>
	<vehicle depart="339.51" departLane="free" departSpeed="max" id="22585" type="HV">
		<route edges="genE318 genE307"/>
	</vehicle>
	<vehicle depart="339.93" departLane="free" departSpeed="max" id="22678" type="HV">
		<route edges="genE296 genE307"/>
	</vehicle>
	<vehicle depart="343.11" departLane="free" departSpeed="max" id="22979" type="HV">
		<route edges="genE316 genE297"/>
	</vehicle>
	<vehicle depart="344.54" departLane="free" departSpeed="max" id="23210" type="HV">
		<route edges="genE316 genE317"/>
	</vehicle>
	<vehicle depart="346.79" departLane="free" departSpeed="max" id="22578" type="CV">
		<route edges="genE318 genE307"/>
	</vehicle>
	<vehicle depart="357.7" departLane="free" departSpeed="max" id="22563" type="HV">
		<route edges="genE318 genE307"/>
	</vehicle>
	<vehicle depart="364.72" departLane="free" departSpeed="max" id="22870" type="HV">
		<route edges="genE296 genE317"/>
	</vehicle>
	<vehicle depart="367.59" departLane="free" departSpeed="max" id="22787" type="CV">
		<route edges="genE296 genE317"/>
	</vehicle>
	<vehicle depart="378.71" departLane="free" departSpeed="max" id="22487" type="HV">
		<route edges="genE318 genE297"/>
	</vehicle>
	<vehicle depart="387.14" departLane="free" departSpeed="max" id="22462" type="HV">
		<route edges="genE318 genE297"/>
	</vehicle>
	<vehicle depart="389.34" departLane="free" departSpeed="max" id="22662" type="CV">
		<route edges="genE296 genE307"/>
	</vehicle>
	<vehicle depart="396.54" departLane="free" departSpeed="max" id="22576" type="HV">
		<route edges="genE318 genE307"/>
	</vehicle>
	<vehicle depart="396.78" departLane="free" departSpeed="max" id="23041" type="HV">
		<route edges="genE316 genE297"/>
	</vehicle>
	<vehicle depart="398.09" departLane="free" departSpeed="max" id="23185" type="HV">
		<route edges="genE316 genE317"/>
	</vehicle>
	<vehicle depart="401.74" departLane="free" departSpeed="max" id="22837" type="HV">
		<route edges="genE296 genE317"/>
	</vehicle>
	<vehicle depart="409.86" departLane="free" departSpeed="max" id="22480" type="CV">
		<route edges="genE318 genE297"/>
	</vehicle>
	<vehicle depart="410.1" departLane="free" departSpeed="max" id="22649" type="CV">
		<route edges="genE296 genE307"/>
	</vehicle>
	<vehicle depart="422.27" departLane="free" departSpeed="max" id="22921" type="HV">
		<route edges="genE296 genE317"/>
	</vehicle>
	<vehicle depart="429.52" departLane="free" departSpeed="max" id="23098" type="HV">
		<route edges="genE316 genE317"/>
	</vehicle>
	<vehicle depart="433.51" departLane="free" departSpeed="max" id="23040" type="HV">
		<route edges="genE316 genE297"/>
	</vehicle>
	<vehicle depart="443.19" departLane="free" departSpeed="max" id="22995" type="HV">
		<route edges="genE316 genE297"/>
	</vehicle>
	<vehicle depart="445.27" departLane="free" departSpeed="max" id="23120" type="HV">
		<route edges="genE316 genE317"/>
	</vehicle>
	<vehicle depart="469.67" departLane="free" departSpeed="max" id="22700" type="HV">
		<route edges="genE296 genE307"/>
	</vehicle>
	<vehicle depart="481.43" departLane="free" departSpeed="max" id="22628" type="CV">
		<route edges="genE318 genE307"/>
	</vehicle>
	<vehicle depart="497.43" departLane="free" departSpeed="max" id="22819" type="HV">
		<route edges="genE296 genE317"/>
	</vehicle>
	<vehicle depart="497.81" departLane="free" departSpeed="max" id="22516" type="HV">
		<route edges="genE318 genE297"/>
	</vehicle>
	<vehicle depart="506.78" departLane="free" departSpeed="max" id="23096" type="HV">
		<route edges="genE316 genE297"/>
	</vehicle>
	<vehicle depart="507.53" departLane="free" departSpeed="max" id="22751" type="HV">
		<route edges="genE296 genE307"/>
	</vehicle>
	<vehicle depart="507.82" departLane="free" departSpeed="max" id="22657" type="HV">
		<route edges="genE296 genE307"/>
	</vehicle>
	<vehicle depart="514.82" departLane="free" departSpeed="max" id="23016" type="CV">
		<route edges="genE316 genE297"/>
	</vehicle>
	<vehicle depart="518.85" departLane="free" departSpeed="max" id="22745" type="CV">
		<route edges="genE296 genE307"/>
	</vehicle>
	<vehicle depart="519.72" departLane="free" departSpeed="max" id="22639" type="HV">
		<route edges="genE296 genE307"/>
	</vehicle>
	<vehicle depart="523.34" departLane="free" departSpeed="max" id="22843" type="HV">
		<route edges="genE296 genE317"/>
	</vehicle>
	<vehicle depart="538.5" departLane="free" departSpeed="max" id="22709" type="CV">
		<route edges="genE296 genE307"/>
	</vehicle>
	<vehicle depart="540.04" departLane="free" departSpeed="max" id="22615" type="HV">
		<route edges="genE318 genE307"/>
	</vehicle>
	<vehicle depart="546.02" departLane="free" departSpeed="max" id="22875" type="HV">
		<route edges="genE296 genE317"/>
	</vehicle>
	<vehicle depart="547.13" departLane="free" departSpeed="max" id="22708" type="HV">
		<route edges="genE296 genE307"/>
	</vehicle>
	<vehicle depart="550.36" departLane="free" departSpeed="max" id="22498" type="HV">
		<route edges="genE318 genE297"/>
	</vehicle>
	<vehicle depart="551.12" departLane="free" departSpeed="max" id="23063" type="CV">
		<route edges="genE316 genE297"/>
	</vehicle>
	<vehicle depart="568.19" departLane="free" departSpeed="max" id="23026" type="HV">
		<route edges="genE316 genE297"/>
	</vehicle>
	<vehicle depart="576.35" departLane="free" departSpeed="max" id="23144" type="HV">
		<route edges="genE316 genE317"/>
	</vehicle>
	<vehicle depart="579.44" departLane="free" departSpeed="max" id="23193" type="CV">
		<route edges="genE316 genE317"/>
	</vehicle>
	<vehicle depart="593.12" departLane="free" departSpeed="max" id="23103" type="CV">
		<route edges="genE316 genE317"/>
	</vehicle>
	<vehicle depart="593.99" departLane="free" departSpeed="max" id="22781" type="CV">
		<route edges="genE296 genE317"/>
	</vehicle>
	<vehicle depart="597.46" departLane="free" departSpeed="max" id="22998" type="HV">
		<route edges="genE316 genE297"/>
	</vehicle>
	<vehicle depart="600.03" departLane="free" departSpeed="max" id="23174" type="HV">
		<route edges="genE316 genE317"/>
	</vehicle>
	<vehicle depart="605.39" departLane="free" departSpeed="max" id="23215" type="HV">
		<route edges="genE316 genE317"/>
	</vehicle>
	<vehicle depart="606.34" departLane="free" departSpeed="max" id="22672" type="HV">
		<route edges="genE296 genE307"/>
	</vehicle>
	<vehicle depart="606.45" departLane="free" departSpeed="max" id="22648" type="HV">
		<route edges="genE296 genE307"/>
	</vehicle>
	<vehicle depart="607.54" departLane="free" departSpeed="max" id="22763" type="CV">
		<route edges="genE296 genE307"/>
	</vehicle>
	<vehicle depart="614.68" departLane="free" departSpeed="max" id="23048" type="HV">
		<route edges="genE316 genE297"/>
	</vehicle>
	<vehicle depart="617.99" departLane="free" departSpeed="max" id="22544" type="CV">
		<route edges="genE318 genE307"/>
	</vehicle>
	<vehicle depart="624.46" departLane="free" departSpeed="max" id="22915" type="HV">
		<route edges="genE296 genE317"/>
	</vehicle>
	<vehicle depart="626.48" departLane="free" departSpeed="max" id="22546" type="HV">
		<route edges="genE318 genE307"/>
	</vehicle>
	<vehicle depart="632.52" departLane="free" departSpeed="max" id="22798" type="HV">
		<route edges="genE296 genE317"/>
	</vehicle>
	<vehicle depart="634.18" departLane="free" departSpeed="max" id="22886" type="HV">
		<route edges="genE296 genE317"/>
	</vehicle>
	<vehicle depart="642.93" departLane="free" departSpeed="max" id="22824" type="HV">
		<route edges="genE296 genE317"/>
	</vehicle>
	<vehicle depart="659.65" departLane="free" departSpeed="max" id="22856" type="HV">
		<route edges="genE296 genE317"/>
	</vehicle>
	<vehicle depart="660.77" departLane="free" departSpeed="max" id="23009" type="HV">
		<route edges="genE316 genE297"/>
	</vehicle>
	<vehicle depart="671.59" departLane="free" departSpeed="max" id="22530" type="HV">
		<route edges="genE318 genE307"/>
	</vehicle>
	<vehicle depart="684.49" departLane="free" departSpeed="max" id="22764" type="HV">
		<route edges="genE296 genE307"/>
	</vehicle>
	<vehicle depart="690.19" departLane="free" departSpeed="max" id="23134" type="HV">
		<route edges="genE316 genE317"/>
	</vehicle>
	<vehicle depart="690.52" departLane="free" departSpeed="max" id="23217" type="HV">
		<route edges="genE316 genE317"/>
	</vehicle>
	<vehicle depart="693.39" departLane="free" departSpeed="max" id="23216" type="HV">
		<route edges="genE316 genE317"/>
	</vehicle>
	<vehicle depart="698.95" departLane="free" departSpeed="max" id="22679" type="CV">
		<route edges="genE296 genE307"/>
	</vehicle>
	<vehicle depart="703.31" departLane="free" departSpeed="max" id="23225" type="CV">
		<route edges="genE316 genE317"/>
	</vehicle>
	<vehicle depart="704.13" departLane="free" departSpeed="max" id="23169" type="HV">
		<route edges="genE316 genE317"/>
	</vehicle>
	<vehicle depart="704.57" departLane="free" departSpeed="max" id="22470" type="HV">
		<route edges="genE318 genE297"/>
	</vehicle>
	<vehicle depart="710.5" departLane="free" departSpeed="max" id="23085" type="HV">
		<route edges="genE316 genE297"/>
	</vehicle>
	<vehicle depart="712.65" departLane="free" departSpeed="max" id="22771" type="HV">
		<route edges="genE296 genE307"/>
	</vehicle>
	<vehicle depart="714.69" departLane="free" departSpeed="max" id="23157" type="CV">
		<route edges="genE316 genE317"/>
	</vehicle>
	<vehicle depart="714.75" departLane="free" departSpeed="max" id="22676" type="HV">
		<route edges="genE296 genE307"/>
	</vehicle>
	<vehicle depart="715.2" departLane="free" departSpeed="max" id="22513" type="HV">
		<route edges="genE318 genE297"/>
	</vehicle>
	<vehicle depart="721.04" departLane="free" departSpeed="max" id="23187" type="HV">
		<route edges="genE316 genE317"/>
	</vehicle>
	<vehicle depart="725.4" departLane="free" departSpeed="max" id="23190" type="HV">
		<route edges="genE316 genE317"/>
	</vehicle>
	<vehicle depart="732.05" departLane="free" departSpeed="max" id="22959" type="HV">
		<route edges="genE316 genE297"/>
	</vehicle>
	<vehicle depart="736.45" departLane="free" departSpeed="max" id="22783" type="HV">
		<route edges="genE296 genE317"/>
	</vehicle>
	<vehicle depart="754.47" departLane="free" departSpeed="max" id="22862" type="HV">
		<route edges="genE296 genE317"/>
	</vehicle>
	<vehicle depart="755.59" departLane="free" departSpeed="max" id="22704" type="CV">
		<route edges="genE296 genE307"/>
	</vehicle>
	<vehicle depart="758.53" departLane="free" departSpeed="max" id="22525" type="HV">
		<route edges="genE318 genE307"/>
	</vehicle>
	<vehicle depart="765.03" departLane="free" departSpeed="max" id="22461" type="HV">
		<route edges="genE318 genE297"/>
	</vehicle>
	<vehicle depart="766.55" departLane="free" departSpeed="max" id="22890" type="HV">
		<route edges="genE296 genE317"/>
	</vehicle>
	<vehicle depart="769.09" departLane="free" departSpeed="max" id="22496" type="HV">
		<route edges="genE318 genE297"/>
	</vehicle>
	<vehicle depart="778.72" departLane="free" departSpeed="max" id="23059" type="CV">
		<route edges="genE316 genE297"/>
	</vehicle>
	<vehicle depart="782.74" departLane="free" departSpeed="max" id="23199" type="CV">
		<route edges="genE316 genE317"/>
	</vehicle>
	<vehicle depart="784.35" departLane="free" departSpeed="max" id="22577" type="HV">
		<route edges="genE318 genE307"/>
	</vehicle>
	<vehicle depart="792.78" departLane="free" departSpeed="max" id="23047" type="HV">
		<route edges="genE316 genE297"/>
	</vehicle>
	<vehicle depart="797.16" departLane="free" departSpeed="max" id="23128" type="HV">
		<route edges="genE316 genE317"/>
	</vehicle>
	<vehicle depart="814.32" departLane="free" departSpeed="max" id="22803" type="HV">
		<route edges="genE296 genE317"/>
	</vehicle>
	<vehicle depart="817.15" departLane="free" departSpeed="max" id="23158" type="HV">
		<route edges="genE316 genE317"/>
	</vehicle>
	<vehicle depart="817.8" departLane="free" departSpeed="max" id="22801" type="HV">
		<route edges="genE296 genE317"/>
	</vehicle>
	<vehicle depart="825.31" departLane="free" departSpeed="max" id="22463" type="HV">
		<route edges="genE318 genE297"/>
	</vehicle>
	<vehicle depart="825.49" departLane="free" departSpeed="max" id="22687" type="HV">
		<route edges="genE296 genE307"/>
	</vehicle>
	<vehicle depart="827.15" departLane="free" departSpeed="max" id="23133" type="CV">
		<route edges="genE316 genE317"/>
	</vehicle>
	<vehicle depart="829.72" departLane="free" departSpeed="max" id="22892" type="CV">
		<route edges="genE296 genE317"/>
	</vehicle>
	<vehicle depart="834.29" departLane="free" departSpeed="max" id="23000" type="HV">
		<route edges="genE316 genE297"/>
	</vehicle>
	<vehicle depart="836.96" departLane="free" departSpeed="max" id="23099" type="CV">
		<route edges="genE316 genE317"/>
	</vehicle>
	<vehicle depart="845.21" departLane="free" departSpeed="max" id="22501" type="HV">
		<route edges="genE318 genE297"/>
	</vehicle>
	<vehicle depart="849.99" departLane="free" departSpeed="max" id="23037" type="HV">
		<route edges="genE316 genE297"/>
	</vehicle>
	<vehicle depart="852.13" departLane="free" departSpeed="max" id="23043" type="HV">
		<route edges="genE316 genE297"/>
	</vehicle>
	<vehicle depart="860.06" departLane="free" departSpeed="max" id="22863" type="HV">
		<route edges="genE296 genE317"/>
	</vehicle>
	<vehicle depart="860.89" departLane="free" departSpeed="max" id="23038" type="CV">
		<route edges="genE316 genE297"/>
	</vehicle>
	<vehicle depart="862.56" departLane="free" departSpeed="max" id="22536" type="HV">
		<route edges="genE318 genE307"/>
	</vehicle>
	<vehicle depart="869.32" departLane="free" departSpeed="max" id="22695" type="HV">
		<route edges="genE296 genE307"/>
	</vehicle>
	<vehicle depart="885.7" departLane="free" departSpeed="max" id="22894" type="HV">
		<route edges="genE296 genE317"/>
	</vehicle>
	<vehicle depart="888.01" departLane="free" departSpeed="max" id="22881" type="HV">
		<route edges="genE296 genE317"/>
	</vehicle>
	<vehicle depart="899.24" departLane="free" departSpeed="max" id="22512" type="HV">
		<route edges="genE318 genE297"/>
	</vehicle>
	<vehicle depart="902.66" departLane="free" departSpeed="max" id="23145" type="HV">
		<route edges="genE316 genE317"/>
	</vehicle>
	<vehicle depart="904.15" departLane="free" departSpeed="max" id="22830" type="HV">
		<route edges="genE296 genE317"/>
	</vehicle>
	<vehicle depart="904.89" departLane="free" departSpeed="max" id="22940" type="CV">
		<route edges="genE316 genE297"/>
	</vehicle>
	<vehicle depart="906.36" departLane="free" departSpeed="max" id="22919" type="HV">
		<route edges="genE296 genE317"/>
	</vehicle>
	<vehicle depart="906.57" departLane="free" departSpeed="max" id="23072" type="HV">
		<route edges="genE316 genE297"/>
	</vehicle>
	<vehicle depart="911.21" departLane="free" departSpeed="max" id="22550" type="CV">
		<route edges="genE318 genE307"/>
	</vehicle>
	<vehicle depart="914.64" departLane="free" departSpeed="max" id="23024" type="CV">
		<route edges="genE316 genE297"/>
	</vehicle>
	<vehicle depart="935.01" departLane="free" departSpeed="max" id="22667" type="HV">
		<route edges="genE296 genE307"/>
	</vehicle>
	<vehicle depart="942.69" departLane="free" departSpeed="max" id="23077" type="CV">
		<route edges="genE316 genE297"/>
	</vehicle>
	<vehicle depart="944.42" departLane="free" departSpeed="max" id="23080" type="HV">
		<route edges="genE316 genE297"/>
	</vehicle>
	<vehicle depart="945.52" departLane="free" departSpeed="max" id="22972" type="HV">
		<route edges="genE316 genE297"/>
	</vehicle>
	<vehicle depart="948.96" departLane="free" departSpeed="max" id="22742" type="HV">
		<route edges="genE296 genE307"/>
	</vehicle>
	<vehicle depart="964.52" departLane="free" departSpeed="max" id="22697" type="HV">
		<route edges="genE296 genE307"/>
	</vehicle>
	<vehicle depart="966.79" departLane="free" departSpeed="max" id="22859" type="HV">
		<route edges="genE296 genE317"/>
	</vehicle>
	<vehicle depart="980.37" departLane="free" departSpeed="max" id="23084" type="HV">
		<route edges="genE316 genE297"/>
	</vehicle>
	<vehicle depart="990.85" departLane="free" departSpeed="max" id="22731" type="HV">
		<route edges="genE296 genE307"/>
	</vehicle>
	<vehicle depart="999.37" departLane="free" departSpeed="max" id="23068" type="CV">
		<route edges="genE316 genE297"/>
	</vehicle>
	<vehicle depart="1001.65" departLane="free" departSpeed="max" id="23119" type="HV">
		<route edges="genE316 genE317"/>
	</vehicle>
	<vehicle depart="1007.13" departLane="free" departSpeed="max" id="22703" type="CV">
		<route edges="genE296 genE307"/>
	</vehicle>
	<vehicle depart="1007.56" departLane="free" departSpeed="max" id="22665" type="CV">
		<route edges="genE296 genE307"/>
	</vehicle>
	<vehicle depart="1011.92" departLane="free" departSpeed="max" id="22710" type="HV">
		<route edges="genE296 genE307"/>
	</vehicle>
	<vehicle depart="1014.02" departLane="free" departSpeed="max" id="22607" type="HV">
		<route edges="genE318 genE307"/>
	</vehicle>
	<vehicle depart="1018.79" departLane="free" departSpeed="max" id="22554" type="HV">
		<route edges="genE318 genE307"/>
	</vehicle>
	<vehicle depart="1019.78" departLane="free" departSpeed="max" id="22929" type="HV">
		<route edges="genE296 genE317"/>
	</vehicle>
	<vehicle depart="1026.44" departLane="free" departSpeed="max" id="22543" type="HV">
		<route edges="genE318 genE307"/>
	</vehicle>
	<vehicle depart="1032.16" departLane="free" departSpeed="max" id="23222" type="HV">
		<route edges="genE316 genE317"/>
	</vehicle>
	<vehicle depart="1034.85" departLane="free" departSpeed="max" id="22766" type="HV">
		<route edges="genE296 genE307"/>
	</vehicle>
	<vehicle depart="1038.93" departLane="free" departSpeed="max" id="22957" type="HV">
		<route edges="genE316 genE297"/>
	</vehicle>
	<vehicle depart="1042.1" departLane="free" departSpeed="max" id="23170" type="HV">
		<route edges="genE316 genE317"/>
	</vehicle>
	<vehicle depart="1044.14" departLane="free" departSpeed="max" id="22482" type="HV">
		<route edges="genE318 genE297"/>
	</vehicle>
	<vehicle depart="1045.85" departLane="free" departSpeed="max" id="22938" type="HV">
		<route edges="genE316 genE297"/>
	</vehicle>
	<vehicle depart="1046.67" departLane="free" departSpeed="max" id="22732" type="HV">
		<route edges="genE296 genE307"/>
	</vehicle>
	<vehicle depart="1059.19" departLane="free" departSpeed="max" id="22963" type="HV">
		<route edges="genE316 genE297"/>
	</vehicle>
	<vehicle depart="1066.65" departLane="free" departSpeed="max" id="22495" type="CV">
		<route edges="genE318 genE297"/>
	</vehicle>
	<vehicle depart="1072.7" departLane="free" departSpeed="max" id="22885" type="CV">
		<route edges="genE296 genE317"/>
	</vehicle>
	<vehicle depart="1075.99" departLane="free" departSpeed="max" id="22640" type="HV">
		<route edges="genE296 genE307"/>
	</vehicle>
	<vehicle depart="1083.09" departLane="free" departSpeed="max" id="23089" type="HV">
		<route edges="genE316 genE297"/>
	</vehicle>
	<vehicle depart="1091.6" departLane="free" departSpeed="max" id="22912" type="HV">
		<route edges="genE296 genE317"/>
	</vehicle>
	<vehicle depart="1095.73" departLane="free" departSpeed="max" id="22551" type="HV">
		<route edges="genE318 genE307"/>
	</vehicle>
	<vehicle depart="1116.25" departLane="free" departSpeed="max" id="22455" type="CV">
		<route edges="genE318 genE297"/>
	</vehicle>
	<vehicle depart="1119.43" departLane="free" departSpeed="max" id="22978" type="HV">
		<route edges="genE316 genE297"/>
	</vehicle>
	<vehicle depart="1122.69" departLane="free" departSpeed="max" id="23001" type="HV">
		<route edges="genE316 genE297"/>
	</vehicle>
	<vehicle depart="1123.08" departLane="free" departSpeed="max" id="23202" type="HV">
		<route edges="genE316 genE317"/>
	</vehicle>
	<vehicle depart="1128.78" departLane="free" departSpeed="max" id="23023" type="HV">
		<route edges="genE316 genE297"/>
	</vehicle>
	<vehicle depart="1140.02" departLane="free" departSpeed="max" id="22896" type="HV">
		<route edges="genE296 genE317"/>
	</vehicle>
	<vehicle depart="1143.3" departLane="free" departSpeed="max" id="23111" type="HV">
		<route edges="genE316 genE317"/>
	</vehicle>
	<vehicle depart="1147.31" departLane="free" departSpeed="max" id="22916" type="HV">
		<route edges="genE296 genE317"/>
	</vehicle>
	<vehicle depart="1151.83" departLane="free" departSpeed="max" id="22831" type="HV">
		<route edges="genE296 genE317"/>
	</vehicle>
	<vehicle depart="1152.28" departLane="free" departSpeed="max" id="22757" type="HV">