<?xml version="1.0" ?>
<routes>
	<vType accel="0.8" decel="4.5" id="CV" length="5" maxSpeed="45" sigma="0.5"/>
	<vType accel="0.8" decel="4.5" id="HV" length="5" maxSpeed="40" sigma="0.5"/>
	<vehicle depart="1.77" departLane="free" departSpeed="max" id="9329" type="HV">
		<route edges="genE318 genE297"/>
	</vehicle>
	<vehicle depart="7.77" departLane="free" departSpeed="max" id="9747" type="HV">
		<route edges="genE296 genE317"/>
	</vehicle>
	<vehicle depart="19.39" departLane="free" departSpeed="max" id="9525" type="HV">
		<route edges="genE318 genE307"/>
	</vehicle>
	<vehicle depart="24.99" departLane="free" departSpeed="max" id="9377" type="HV">
		<route edges="genE318 genE297"/>
	</vehicle>
	<vehicle depart="25.12" departLane="free" departSpeed="max" id="9752" type="HV">
		<route edges="genE296 genE317"/>
	</vehicle>
	<vehicle depart="27.33" departLane="free" departSpeed="max" id="10239" type="HV">
		<route edges="genE316 genE317"/>
	</vehicle>
	<vehicle depart="27.92" departLane="free" departSpeed="max" id="10144" type="HV">
		<route edges="genE316 genE297"/>
	</vehicle>
	<vehicle depart="43.24" departLane="free" departSpeed="max" id="9559" type="HV">
		<route edges="genE296 genE307"/>
	</vehicle>
	<vehicle depart="56.11" departLane="free" departSpeed="max" id="10167" type="HV">
		<route edges="genE316 genE317"/>
	</vehicle>
	<vehicle depart="60.44" departLane="free" departSpeed="max" id="10041" type="HV">
		<route edges="genE316 genE297"/>
	</vehicle>
	<vehicle depart="68.83" departLane="free" departSpeed="max" id="10236" type="HV">
		<route edges="genE316 genE317"/>
	</vehicle>
	<vehicle depart="69.58" departLane="free" departSpeed="max" id="10035" type="HV">
		<route edges="genE316 genE297"/>
	</vehicle>
	<vehicle depart="72.52" departLane="free" departSpeed="max" id="9631" type="CV">
		<route edges="genE296 genE307"/>
	</vehicle>
	<vehicle depart="72.76" departLane="free" departSpeed="max" id="9485" type="HV">
		<route edges="genE318 genE307"/>
	</vehicle>
	<vehicle depart="73.14" departLane="free" departSpeed="max" id="10175" type="CV">
		<route edges="genE316 genE317"/>
	</vehicle>
	<vehicle depart="83.99" departLane="free" departSpeed="max" id="9821" type="HV">
		<route edges="genE296 genE317"/>
	</vehicle>
	<vehicle depart="84.11" departLane="free" departSpeed="max" id="10090" type="HV">
		<route edges="genE316 genE297"/>
	</vehicle>
	<vehicle depart="85.07" departLane="free" departSpeed="max" id="10209" type="HV">
		<route edges="genE316 genE317"/>
	</vehicle>
	<vehicle depart="90.08" departLane="free" departSpeed="max" id="9303" type="HV">
		<route edges="genE318 genE297"/>
	</vehicle>
	<vehicle depart="92.07" departLane="free" departSpeed="max" id="9516" type="CV">
		<route edges="genE318 genE307"/>
	</vehicle>
	<vehicle depart="92.22" departLane="free" departSpeed="max" id="9688" type="HV">
		<route edges="genE296 genE307"/>
	</vehicle>
	<vehicle depart="95.49" departLane="free" departSpeed="max" id="10268" type="HV">
		<route edges="genE316 genE317"/>
	</vehicle>
	<vehicle depart="96.78" departLane="free" departSpeed="max" id="9918" type="HV">
		<route edges="genE296 genE317"/>
	</vehicle>
	<vehicle depart="102.79" departLane="free" departSpeed="max" id="9396" type="HV">
		<route edges="genE318 genE307"/>
	</vehicle>
	<vehicle depart="106.35" departLane="free" departSpeed="max" id="9491" type="HV">
		<route edges="genE318 genE307"/>
	</vehicle>
	<vehicle depart="107.81" departLane="free" departSpeed="max" id="9774" type="HV">
		<route edges="genE296 genE317"/>
	</vehicle>
	<vehicle depart="109.07" departLane="free" departSpeed="max" id="9995" type="CV">
		<route edges="genE316 genE297"/>
	</vehicle>
	<vehicle depart="116.58" departLane="free" departSpeed="max" id="9630" type="CV">
		<route edges="genE296 genE307"/>
	</vehicle>
	<vehicle depart="123.29" departLane="free" departSpeed="max" id="10322" type="HV">
		<route edges="genE316 genE317"/>
	</vehicle>
	<vehicle depart="124.64" departLane="free" departSpeed="max" id="9309" type="HV">
		<route edges="genE318 genE297"/>
	</vehicle>
	<vehicle depart="128.92" departLane="free" departSpeed="max" id="10297" type="HV">
		<route edges="genE316 genE317"/>
	</vehicle>
	<vehicle depart="130.0" departLane="free" departSpeed="max" id="9312" type="HV">
		<route edges="genE318 genE297"/>
	</vehicle>
	<vehicle depart="131.47" departLane="free" departSpeed="max" id="9381" type="HV">
		<route edges="genE318 genE307"/>
	</vehicle>
	<vehicle depart="134.19" departLane="free" departSpeed="max" id="9682" type="HV">
		<route edges="genE296 genE307"/>
	</vehicle>
	<vehicle depart="138.08" departLane="free" departSpeed="max" id="10136" type="HV">
		<route edges="genE316 genE297"/>
	</vehicle>
	<vehicle depart="143.59" departLane="free" departSpeed="max" id="9412" type="HV">
		<route edges="genE318 genE307"/>
	</vehicle>
	<vehicle depart="149.27" departLane="free" departSpeed="max" id="9554" type="HV">
		<route edges="genE296 genE307"/>
	</vehicle>
	<vehicle depart="152.87" departLane="free" departSpeed="max" id="9885" type="HV">
		<route edges="genE296 genE317"/>
	</vehicle>
	<vehicle depart="155.4" departLane="free" departSpeed="max" id="9740" type="CV">
		<route edges="genE296 genE317"/>
	</vehicle>
	<vehicle depart="162.39" departLane="free" departSpeed="max" id="9640" type="HV">
		<route edges="genE296 genE307"/>
	</vehicle>
	<vehicle depart="163.87" departLane="free" departSpeed="max" id="10295" type="CV">
		<route edges="genE316 genE317"/>
	</vehicle>
	<vehicle depart="168.66" departLane="free" departSpeed="max" id="9943" type="HV">
		<route edges="genE316 genE297"/>
	</vehicle>
	<vehicle depart="170.31" departLane="free" departSpeed="max" id="10160" type="CV">
		<route edges="genE316 genE317"/>
	</vehicle>
	<vehicle depart="173.61" departLane="free" departSpeed="max" id="9974" type="CV">
		<route edges="genE316 genE297"/>
	</vehicle>
	<vehicle depart="177.17" departLane="free" departSpeed="max" id="10129" type="HV">
		<route edges="genE316 genE297"/>
	</vehicle>
	<vehicle depart="182.35" departLane="free" departSpeed="max" id="10158" type="HV">
		<route edges="genE316 genE317"/>
	</vehicle>
	<vehicle depart="183.69" departLane="free" departSpeed="max" id="9775" type="HV">
		<route edges="genE296 genE317"/>
	</vehicle>
	<vehicle depart="183.89" departLane="free" departSpeed="max" id="10318" type="HV">
		<route edges="genE316 genE317"/>
	</vehicle>
	<vehicle depart="187.13" departLane="free" departSpeed="max" id="9527" type="HV">
		<route edges="genE318 genE307"/>
	</vehicle>
	<vehicle depart="194.48" departLane="free" departSpeed="max" id="9794" type="HV">
		<route edges="genE296 genE317"/>
	</vehicle>
	<vehicle depart="194.98" departLane="free" departSpeed="max" id="10280" type="CV">
		<route edges="genE316 genE317"/>
	</vehicle>
	<vehicle depart="197.16" departLane="free" departSpeed="max" id="10305" type="HV">
		<route edges="genE316 genE317"/>
	</vehicle>
	<vehicle depart="204.31" departLane="free" departSpeed="max" id="9575" type="HV">
		<route edges="genE296 genE307"/>
	</vehicle>
	<vehicle depart="213.15" departLane="free" departSpeed="max" id="9879" type="HV">
		<route edges="genE296 genE317"/>
	</vehicle>
	<vehicle depart="214.18" departLane="free" departSpeed="max" id="9743" type="CV">
		<route edges="genE296 genE317"/>
	</vehicle>
	<vehicle depart="216.24" departLane="free" departSpeed="max" id="10231" type="CV">
		<route edges="genE316 genE317"/>
	</vehicle>
	<vehicle depart="220.76" departLane="free" departSpeed="max" id="9757" type="HV">
		<route edges="genE296 genE317"/>
	</vehicle>
	<vehicle depart="222.58" departLane="free" departSpeed="max" id="9384" type="HV">
		<route edges="genE318 genE307"/>
	</vehicle>
	<vehicle depart="226.93" departLane="free" departSpeed="max" id="10316" type="CV">
		<route edges="genE316 genE317"/>
	</vehicle>
	<vehicle depart="227.17" departLane="free" departSpeed="max" id="9321" type="HV">
		<route edges="genE318 genE297"/>
	</vehicle>
	<vehicle depart="229.81" departLane="free" departSpeed="max" id="10249" type="HV">
		<route edges="genE316 genE317"/>
	</vehicle>
	<vehicle depart="230.62" departLane="free" departSpeed="max" id="9568" type="HV">
		<route edges="genE296 genE307"/>
	</vehicle>
	<vehicle depart="232.52" departLane="free" departSpeed="max" id="9705" type="HV">
		<route edges="genE296 genE307"/>
	</vehicle>
	<vehicle depart="234.94" departLane="free" departSpeed="max" id="10307" type="HV">
		<route edges="genE316 genE317"/>
	</vehicle>
	<vehicle depart="236.1" departLane="free" departSpeed="max" id="10107" type="HV">
		<route edges="genE316 genE297"/>
	</vehicle>
	<vehicle depart="239.32" departLane="free" departSpeed="max" id="9751" type="CV">
		<route edges="genE296 genE317"/>
	</vehicle>
	<vehicle depart="240.77" departLane="free" departSpeed="max" id="10312" type="HV">
		<route edges="genE316 genE317"/>
	</vehicle>
	<vehicle depart="245.4" departLane="free" departSpeed="max" id="10251" type="HV">
		<route edges="genE316 genE317"/>
	</vehicle>
	<vehicle depart="245.86" departLane="free" departSpeed="max" id="9468" type="HV">
		<route edges="genE318 genE307"/>
	</vehicle>
	<vehicle depart="247.75" departLane="free" departSpeed="max" id="9768" type="HV">
		<route edges="genE296 genE317"/>
	</vehicle>
	<vehicle depart="251.19" departLane="free" departSpeed="max" id="10104" type="HV">
		<route edges="genE316 genE297"/>
	</vehicle>
	<vehicle depart="252.12" departLane="free" departSpeed="max" id="9710" type="HV">
		<route edges="genE296 genE307"/>
	</vehicle>
	<vehicle depart="253.19" departLane="free" departSpeed="max" id="9810" type="HV">
		<route edges="genE296 genE317"/>
	</vehicle>
	<vehicle depart="259.1" departLane="free" departSpeed="max" id="9827" type="HV">
		<route edges="genE296 genE317"/>
	</vehicle>
	<vehicle depart="261.11" departLane="free" departSpeed="max" id="9449" type="HV">
		<route edges="genE318 genE307"/>
	</vehicle>
	<vehicle depart="264.18" departLane="free" departSpeed="max" id="10036" type="HV">
		<route edges="genE316 genE297"/>
	</vehicle>
	<vehicle depart="264.54" departLane="free" departSpeed="max" id="9418" type="HV">
		<route edges="genE318 genE307"/>
	</vehicle>
	<vehicle depart="266.64" departLane="free" departSpeed="max" id="9968" type="HV">
		<route edges="genE316 genE297"/>
	</vehicle>
	<vehicle depart="269.07" departLane="free" departSpeed="max" id="10112" type="HV">
		<route edges="genE316 genE297"/>
	</vehicle>
	<vehicle depart="270.21" departLane="free" departSpeed="max" id="10121" type="CV">
		<route edges="genE316 genE297"/>
	</vehicle>
	<vehicle depart="276.41" departLane="free" departSpeed="max" id="9628" type="HV">
		<route edges="genE296 genE307"/>
	</vehicle>
	<vehicle depart="276.81" departLane="free" departSpeed="max" id="10275" type="CV">
		<route edges="genE316 genE317"/>
	</vehicle>
	<vehicle depart="280.83" departLane="free" departSpeed="max" id="9305" type="HV">
		<route edges="genE318 genE297"/>
	</vehicle>
	<vehicle depart="289.71" departLane="free" departSpeed="max" id="9946" type="CV">
		<route edges="genE316 genE297"/>
	</vehicle>
	<vehicle depart="291.91" departLane="free" departSpeed="max" id="9942" type="HV">
		<route edges="genE316 genE297"/>
	</vehicle>
	<vehicle depart="292.69" departLane="free" departSpeed="max" id="9861" type="HV">
		<route edges="genE296 genE317"/>
	</vehicle>
	<vehicle depart="297.37" departLane="free" departSpeed="max" id="9950" type="HV">
		<route edges="genE316 genE297"/>
	</vehicle>
	<vehicle depart="298.13" departLane="free" departSpeed="max" id="9807" type="HV">
		<route edges="genE296 genE317"/>
	</vehicle>
	<vehicle depart="299.5" departLane="free" departSpeed="max" id="9600" type="HV">
		<route edges="genE296 genE307"/>
	</vehicle>
	<vehicle depart="301.92" departLane="free" departSpeed="max" id="9393" type="HV">
		<route edges="genE318 genE307"/>
	</vehicle>
	<vehicle depart="306.04" departLane="free" departSpeed="max" id="9793" type="HV">
		<route edges="genE296 genE317"/>
	</vehicle>
	<vehicle depart="306.41" departLane="free" departSpeed="max" id="9997" type="HV">
		<route edges="genE316 genE297"/>
	</vehicle>
	<vehicle depart="307.41" departLane="free" departSpeed="max" id="9597" type="HV">
		<route edges="genE296 genE307"/>
	</vehicle>
	<vehicle depart="309.24" departLane="free" departSpeed="max" id="10093" type="HV">
		<route edges="genE316 genE297"/>
	</vehicle>
	<vehicle depart="309.45" departLane="free" departSpeed="max" id="9484" type="CV">
		<route edges="genE318 genE307"/>
	</vehicle>
	<vehicle depart="311.79" departLane="free" departSpeed="max" id="10044" type="HV">
		<route edges="genE316 genE297"/>
	</vehicle>
	<vehicle depart="319.85" departLane="free" departSpeed="max" id="9420" type="HV">
		<route edges="genE318 genE307"/>
	</vehicle>
	<vehicle depart="320.74" departLane="free" departSpeed="max" id="9454" type="HV">
		<route edges="genE318 genE307"/>
	</vehicle>
	<vehicle depart="327.25" departLane="free" departSpeed="max" id="9494" type="HV">
		<route edges="genE318 genE307"/>
	</vehicle>
	<vehicle depart="332.0" departLane="free" departSpeed="max" id="10034" type="HV">
		<route edges="genE316 genE297"/>
	</vehicle>
	<vehicle depart="337.98" departLane="free" departSpeed="max" id="9342" type="HV">
		<route edges="genE318 genE297"/>
	</vehicle>
	<vehicle depart="344.74" departLane="free" departSpeed="max" id="10110" type="CV">
		<route edges="genE316 genE297"/>
	</vehicle>
	<vehicle depart="347.75" departLane="free" departSpeed="max" id="10293" type="HV">
		<route edges="genE316 genE317"/>
	</vehicle>
	<vehicle depart="353.89" departLane="free" departSpeed="max" id="10096" type="HV">
		<route edges="genE316 genE297"/>
	</vehicle>
	<vehicle depart="354.32" departLane="free" departSpeed="max" id="10206" type="HV">
		<route edges="genE316 genE317"/>
	</vehicle>
	<vehicle depart="354.88" departLane="free" departSpeed="max" id="9728" type="HV">
		<route edges="genE296 genE317"/>
	</vehicle>
	<vehicle depart="361.33" departLane="free" departSpeed="max" id="10027" type="HV">
		<route edges="genE316 genE297"/>
	</vehicle>
	<vehicle depart="361.87" departLane="free" departSpeed="max" id="9340" type="HV">
		<route edges="genE318 genE297"/>
	</vehicle>
	<vehicle depart="366.41" departLane="free" departSpeed="max" id="9816" type="HV">
		<route edges="genE296 genE317"/>
	</vehicle>
	<vehicle depart="366.41" departLane="free" departSpeed="max" id="9983" type="HV">
		<route edges="genE316 genE297"/>
	</vehicle>
	<vehicle depart="368.07" departLane="free" departSpeed="max" id="9294" type="HV">
		<route edges="genE318 genE297"/>
	</vehicle>
	<vehicle depart="368.34" departLane="free" departSpeed="max" id="9960" type="HV">
		<route edges="genE316 genE297"/>
	</vehicle>
	<vehicle depart="373.59" departLane="free" departSpeed="max" id="9762" type="HV">
		<route edges="genE296 genE317"/>
	</vehicle>
	<vehicle depart="379.65" departLane="free" departSpeed="max" id="9745" type="HV">
		<route edges="genE296 genE317"/>
	</vehicle>
	<vehicle depart="388.66" departLane="free" departSpeed="max" id="9967" type="HV">
		<route edges="genE316 genE297"/>
	</vehicle>
	<vehicle depart="393.84" departLane="free" departSpeed="max" id="10207" type="HV">
		<route edges="genE316 genE317"/>
	</vehicle>
	<vehicle depart="404.32" departLane="free" departSpeed="max" id="10063" type="HV">
		<route edges="genE316 genE297"/>
	</vehicle>
	<vehicle depart="404.63" departLane="free" departSpeed="max" id="10077" type="HV">
		<route edges="genE316 genE297"/>
	</vehicle>
	<vehicle depart="404.63" departLane="free" departSpeed="max" id="10148" type="HV">
		<route edges="genE316 genE297"/>
	</vehicle>
	<vehicle depart="405.98" departLane="free" departSpeed="max" id="9547" type="HV">
		<route edges="genE296 genE307"/>
	</vehicle>
	<vehicle depart="409.88" departLane="free" departSpeed="max" id="9307" type="HV">
		<route edges="genE318 genE297"/>
	</vehicle>
	<vehicle depart="411.07" departLane="free" departSpeed="max" id="10165" type="HV">
		<route edges="genE316 genE317"/>
	</vehicle>
	<vehicle depart="418.36" departLane="free" departSpeed="max" id="9549" type="HV">
		<route edges="genE296 genE307"/>
	</vehicle>
	<vehicle depart="420.34" departLane="free" departSpeed="max" id="10252" type="HV">
		<route edges="genE316 genE317"/>
	</vehicle>
	<vehicle depart="420.43" departLane="free" departSpeed="max" id="9994" type="HV">
		<route edges="genE316 genE297"/>
	</vehicle>
	<vehicle depart="421.28" departLane="free" departSpeed="max" id="9616" type="HV">
		<route edges="genE296 genE307"/>
	</vehicle>
	<vehicle depart="422.79" departLane="free" departSpeed="max" id="9691" type="HV">
		<route edges="genE296 genE307"/>
	</vehicle>
	<vehicle depart="428.39" departLane="free" departSpeed="max" id="9376" type="HV">
		<route edges="genE318 genE297"/>
	</vehicle>
	<vehicle depart="430.15" departLane="free" departSpeed="max" id="9475" type="CV">
		<route edges="genE318 genE307"/>
	</vehicle>
	<vehicle depart="435.04" departLane="free" departSpeed="max" id="10028" type="HV">
		<route edges="genE316 genE297"/>
	</vehicle>
	<vehicle depart="438.29" departLane="free" departSpeed="max" id="10067" type="HV">
		<route edges="genE316 genE297"/>
	</vehicle>
	<vehicle depart="447.06" departLane="free" departSpeed="max" id="9362" type="HV">
		<route edges="genE318 genE297"/>
	</vehicle>
	<vehicle depart="450.99" departLane="free" departSpeed="max" id="9419" type="HV">
		<route edges="genE318 genE307"/>
	</vehicle>
	<vehicle depart="452.49" departLane="free" departSpeed="max" id="9692" type="HV">
		<route edges="genE296 genE307"/>
	</vehicle>
	<vehicle depart="454.81" departLane="free" departSpeed="max" id="9798" type="HV">
		<route edges="genE296 genE317"/>
	</vehicle>
	<vehicle depart="466.39" departLane="free" departSpeed="max" id="9466" type="HV">
		<route edges="genE318 genE307"/>
	</vehicle>
	<vehicle depart="470.9" departLane="free" departSpeed="max" id="9963" type="CV">
		<route edges="genE316 genE297"/>
	</vehicle>
	<vehicle depart="473.21" departLane="free" departSpeed="max" id="10065" type="HV">
		<route edges="genE316 genE297"/>
	</vehicle>
	<vehicle depart="479.65" departLane="free" departSpeed="max" id="10064" type="HV">
		<route edges="genE316 genE297"/>
	</vehicle>
	<vehicle depart="482.82" departLane="free" departSpeed="max" id="10114" type="HV">
		<route edges="genE316 genE297"/>
	</vehicle>
	<vehicle depart="487.01" departLane="free" departSpeed="max" id="9349" type="HV">
		<route edges="genE318 genE297"/>
	</vehicle>
	<vehicle depart="488.63" departLane="free" departSpeed="max" id="10081" type="HV">
		<route edges="genE316 genE297"/>
	</vehicle>
	<vehicle depart="489.71" departLane="free" departSpeed="max" id="9818" type="HV">
		<route edges="genE296 genE317"/>
	</vehicle>
	<vehicle depart="494.17" departLane="free" departSpeed="max" id="10263" type="CV">
		<route edges="genE316 genE317"/>
	</vehicle>
	<vehicle depart="497.21" departLane="free" departSpeed="max" id="10199" type="HV">
		<route edges="genE316 genE317"/>
	</vehicle>
	<vehicle depart="498.49" departLane="free" departSpeed="max" id="10005" type="CV">
		<route edges="genE316 genE297"/>
	</vehicle>
	<vehicle depart="501.34" departLane="free" departSpeed="max" id="9939" type="HV">
		<route edges="genE316 genE297"/>
	</vehicle>
	<vehicle depart="504.63" departLane="free" departSpeed="max" id="10310" type="HV">
		<route edges="genE316 genE317"/>
	</vehicle>
	<vehicle depart="504.8" departLane="free" departSpeed="max" id="9596" type="HV">
		<route edges="genE296 genE307"/>
	</vehicle>
	<vehicle depart="507.41" departLane="free" departSpeed="max" id="10122" type="HV">
		<route edges="genE316 genE297"/>
	</vehicle>
	<vehicle depart="510.9" departLane="free" departSpeed="max" id="9413" type="CV">
		<route edges="genE318 genE307"/>
	</vehicle>
	<vehicle depart="516.4" departLane="free" departSpeed="max" id="9863" type="HV">
		<route edges="genE296 genE317"/>
	</vehicle>
	<vehicle depart="526.04" departLane="free" departSpeed="max" id="9668" type="HV">
		<route edges="genE296 genE307"/>
	</vehicle>
	<vehicle depart="530.32" departLane="free" departSpeed="max" id="10075" type="HV">
		<route edges="genE316 genE297"/>
	</vehicle>
	<vehicle depart="531.12" departLane="free" departSpeed="max" id="9455" type="HV">
		<route edges="genE318 genE307"/>
	</vehicle>
	<vehicle depart="533.31" departLane="free" departSpeed="max" id="9382" type="HV">
		<route edges="genE318 genE307"/>
	</vehicle>
	<vehicle depart="538.85" departLane="free" departSpeed="max" id="10186" type="HV">
		<route edges="genE316 genE317"/>
	</vehicle>
	<vehicle depart="539.37" departLane="free" departSpeed="max" id="9741" type="HV">
		<route edges="genE296 genE317"/>
	</vehicle>
	<vehicle depart="542.71" departLane="free" departSpeed="max" id="9657" type="HV">
		<route edges="genE296 genE307"/>
	</vehicle>
	<vehicle depart="547.04" departLane="free" departSpeed="max" id="9954" type="HV">
		<route edges="genE316 genE297"/>
	</vehicle>
	<vehicle depart="547.39" departLane="free" departSpeed="max" id="9700" type="HV">
		<route edges="genE296 genE307"/>
	</vehicle>
	<vehicle depart="561.03" departLane="free" departSpeed="max" id="9693" type="HV">
		<route edges="genE296 genE307"/>
	</vehicle>
	<vehicle depart="564.2" departLane="free" departSpeed="max" id="9496" type="HV">
		<route edges="genE318 genE307"/>
	</vehicle>
	<vehicle depart="567.05" departLane="free" departSpeed="max" id="9886" type="HV">
		<route edges="genE296 genE317"/>
	</vehicle>
	<vehicle depart="567.08" departLane="free" departSpeed="max" id="10299" type="HV">
		<route edges="genE316 genE317"/>
	</vehicle>
	<vehicle depart="569.48" departLane="free" departSpeed="max" id="9812" type="CV">
		<route edges="genE296 genE317"/>
	</vehicle>
	<vehicle depart="572.94" departLane="free" departSpeed="max" id="9620" type="HV">
		<route edges="genE296 genE307"/>
	</vehicle>
	<vehicle depart="582.59" departLane="free" departSpeed="max" id="9949" type="HV">
		<route edges="genE316 genE297"/>
	</vehicle>
	<vehicle depart="586.36" departLane="free" departSpeed="max" id="10168" type="HV">
		<route edges="genE316 genE317"/>
	</vehicle>
	<vehicle depart="586.79" departLane="free" departSpeed="max" id="9727" type="CV">
		<route edges="genE296 genE317"/>
	</vehicle>
	<vehicle depart="589.88" departLane="free" departSpeed="max" id="10166" type="HV">
		<route edges="genE316 genE317"/>
	</vehicle>
	<vehicle depart="590.66" departLane="free" departSpeed="max" id="9585" type="HV">
		<route edges="genE296 genE307"/>
	</vehicle>
	<vehicle depart="590.9" departLane="free" departSpeed="max" id="10221" type="HV">
		<route edges="genE316 genE317"/>
	</vehicle>
	<vehicle depart="591.08" departLane="free" departSpeed="max" id="9535" type="HV">
		<route edges="genE296 genE307"/>
	</vehicle>
	<vehicle depart="592.65" departLane="free" departSpeed="max" id="9345" type="HV">
		<route edges="genE318 genE297"/>
	</vehicle>
	<vehicle depart="595.45" departLane="free" departSpeed="max" id="10117" type="HV">
		<route edges="genE316 genE297"/>
	</vehicle>
	<vehicle depart="599.71" departLane="free" departSpeed="max" id="9508" type="HV">
		<route edges="genE318 genE307"/>
	</vehicle>
	<vehicle depart="604.49" departLane="free" departSpeed="max" id="9509" type="HV">
		<route edges="genE318 genE307"/>
	</vehicle>
	<vehicle depart="605.37" departLane="free" departSpeed="max" id="9708" type="HV">
		<route edges="genE296 genE307"/>
	</vehicle>
	<vehicle depart="609.37" departLane="free" departSpeed="max" id="9375" type="HV">
		<route edges="genE318 genE297"/>
	</vehicle>
	<vehicle depart="610.32" departLane="free" departSpeed="max" id="10189" type="HV">
		<route edges="genE316 genE317"/>
	</vehicle>
	<vehicle depart="611.2" departLane="free" departSpeed="max" id="10321" type="HV">
		<route edges="genE316 genE317"/>
	</vehicle>
	<vehicle depart="611.93" departLane="free" departSpeed="max" id="10116" type="HV">
		<route edges="genE316 genE297"/>
	</vehicle>
	<vehicle depart="622.0" departLane="free" departSpeed="max" id="9445" type="CV">
		<route edges="genE318 genE307"/>
	</vehicle>
	<vehicle depart="624.97" departLane="free" departSpeed="max" id="9841" type="HV">
		<route edges="genE296 genE317"/>
	</vehicle>
	<vehicle depart="625.07" departLane="free" departSpeed="max" id="9614" type="CV">
		<route edges="genE296 genE307"/>
	</vehicle>
	<vehicle depart="630.49" departLane="free" departSpeed="max" id="9536" type="HV">
		<route edges="genE296 genE307"/>
	</vehicle>
	<vehicle depart="631.91" departLane="free" departSpeed="max" id="9865" type="CV">
		<route edges="genE296 genE317"/>
	</vehicle>
	<vehicle depart="639.84" departLane="free" departSpeed="max" id="9777" type="HV">
		<route edges="genE296 genE317"/>
	</vehicle>
	<vehicle depart="644.43" departLane="free" departSpeed="max" id="9900" type="CV">
		<route edges="genE296 genE317"/>
	</vehicle>
	<vehicle depart="647.01" departLane="free" departSpeed="max" id="9803" type="HV">
		<route edges="genE296 genE317"/>
	</vehicle>
	<vehicle depart="647.36" departLane="free" departSpeed="max" id="9754" type="CV">
		<route edges="genE296 genE317"/>
	</vehicle>
	<vehicle depart="648.44" departLane="free" departSpeed="max" id="9843" type="HV">
		<route edges="genE296 genE317"/>
	</vehicle>
	<vehicle depart="652.73" departLane="free" departSpeed="max" id="9895" type="HV">
		<route edges="genE296 genE317"/>
	</vehicle>
	<vehicle depart="656.44" departLane="free" departSpeed="max" id="9658" type="HV">
		<route edges="genE296 genE307"/>
	</vehicle>
	<vehicle depart="657.15" departLane="free" departSpeed="max" id="9649" type="HV">
		<route edges="genE296 genE307"/>
	</vehicle>
	<vehicle depart="661.62" departLane="free" departSpeed="max" id="9981" type="HV">
		<route edges="genE316 genE297"/>
	</vehicle>
	<vehicle depart="663.79" departLane="free" departSpeed="max" id="9764" type="HV">
		<route edges="genE296 genE317"/>
	</vehicle>
	<vehicle depart="669.64" departLane="free" departSpeed="max" id="10243" type="HV">
		<route edges="genE316 genE317"/>
	</vehicle>
	<vehicle depart="673.32" departLane="free" departSpeed="max" id="10259" type="HV">
		<route edges="genE316 genE317"/>
	</vehicle>
	<vehicle depart="675.76" departLane="free" departSpeed="max" id="9697" type="HV">
		<route edges="genE296 genE307"/>
	</vehicle>
	<vehicle depart="679.16" departLane="free" departSpeed="max" id="9483" type="CV">
		<route edges="genE318 genE307"/>
	</vehicle>
	<vehicle depart="681.08" departLane="free" departSpeed="max" id="9799" type="HV">
		<route edges="genE296 genE317"/>
	</vehicle>
	<vehicle depart="682.6" departLane="free" departSpeed="max" id="10290" type="HV">
		<route edges="genE316 genE317"/>
	</vehicle>
	<vehicle depart="686.22" departLane="free" departSpeed="max" id="9352" type="HV">
		<route edges="genE318 genE297"/>
	</vehicle>
	<vehicle depart="686.79" departLane="free" departSpeed="max" id="10182" type="HV">
		<route edges="genE316 genE317"/>
	</vehicle>
	<vehicle depart="687.36" departLane="free" departSpeed="max" id="9369" type="HV">
		<route edges="genE318 genE297"/>
	</vehicle>
	<vehicle depart="689.25" departLane="free" departSpeed="max" id="10011" type="HV">
		<route edges="genE316 genE297"/>
	</vehicle>
	<vehicle depart="692.04" departLane="free" departSpeed="max" id="9374" type="CV">
		<route edges="genE318 genE297"/>
	</vehicle>
	<vehicle depart="692.66" departLane="free" departSpeed="max" id="9948" type="HV">
		<route edges="genE316 genE297"/>
	</vehicle>
	<vehicle depart="698.88" departLane="free" departSpeed="max" id="10084" type="HV">
		<route edges="genE316 genE297"/>
	</vehicle>
	<vehicle depart="701.22" departLane="free" departSpeed="max" id="10191" type="HV">
		<route edges="genE316 genE317"/>
	</vehicle>
	<vehicle depart="703.66" departLane="free" departSpeed="max" id="9380" type="HV">
		<route edges="genE318 genE307"/>
	</vehicle>
	<vehicle depart="705.32" departLane="free" departSpeed="max" id="9996" type="HV">
		<route edges="genE316 genE297"/>
	</vehicle>
	<vehicle depart="710.81" departLane="free" departSpeed="max" id="9433" type="HV">
		<route edges="genE318 genE307"/>
	</vehicle>
	<vehicle depart="713.4" departLane="free" departSpeed="max" id="9436" type="HV">
		<route edges="genE318 genE307"/>
	</vehicle>
	<vehicle depart="714.67" departLane="free" departSpeed="max" id="9565" type="HV">
		<route edges="genE296 genE307"/>
	</vehicle>
	<vehicle depart="717.63" departLane="free" departSpeed="max" id="9923" type="HV">
		<route edges="genE296 genE317"/>
	</vehicle>
	<vehicle depart="722.44" departLane="free" departSpeed="max" id="9589" type="HV">
		<route edges="genE296 genE307"/>
	</vehicle>
	<vehicle depart="727.75" departLane="free" departSpeed="max" id="9372" type="HV">
		<route edges="genE318 genE297"/>
	</vehicle>
	<vehicle depart="728.65" departLane="free" departSpeed="max" id="9293" type="HV">
		<route edges="genE318 genE297"/>
	</vehicle>
	<vehicle depart="731.18" departLane="free" departSpeed="max" id="9442" type="CV">
		<route edges="genE318 genE307"/>
	</vehicle>
	<vehicle depart="731.49" departLane="free" departSpeed="max" id="10214" type="HV">
		<route edges="genE316 genE317"/>
	</vehicle>
	<vehicle depart="735.08" departLane="free" departSpeed="max" id="9989" type="CV">
		<route edges="genE316 genE297"/>
	</vehicle>
	<vehicle depart="736.02" departLane="free" departSpeed="max" id="10266" type="HV">
		<route edges="genE316 genE317"/>
	</vehicle>
	<vehicle depart="737.54" departLane="free" departSpeed="max" id="9871" type="CV">
		<route edges="genE296 genE317"/>
	</vehicle>
	<vehicle depart="738.64" departLane="free" departSpeed="max" id="9904" type="HV">
		<route edges="genE296 genE317"/>
	</vehicle>
	<vehicle depart="742.51" departLane="free" departSpeed="max" id="10056" type="CV">
		<route edges="genE316 genE297"/>
	</vehicle>
	<vehicle depart="746.06" departLane="free" departSpeed="max" id="9532" type="HV">
		<route edges="genE296 genE307"/>
	</vehicle>