<?xml version="1.0" ?>
<routes>
	<vType accel="0.8" decel="4.5" id="CV" length="5" maxSpeed="45" sigma="0.5"/>
	<vType accel="0.8" decel="4.5" id="HV" length="5" maxSpeed="40" sigma="0.5"/>
	<vehicle depart="1.98" departLane="free" departSpeed="max" id="21985" type="HV">
		<route edges="genE296 genE317"/>
	</vehicle>
	<vehicle depart="3.6" departLane="free" departSpeed="max" id="21701" type="HV">
		<route edges="genE296 genE307"/>
	</vehicle>
	<vehicle depart="3.77" departLane="free" departSpeed="max" id="22247" type="HV">
		<route edges="genE316 genE297"/>
	</vehicle>
	<vehicle depart="17.33" departLane="free" departSpeed="max" id="21579" type="HV">
		<route edges="genE318 genE307"/>
	</vehicle>
	<vehicle depart="21.34" departLane="free" departSpeed="max" id="22244" type="HV">
		<route edges="genE316 genE297"/>
	</vehicle>
	<vehicle depart="35.68" departLane="free" departSpeed="max" id="22412" type="HV">
		<route edges="genE316 genE317"/>
	</vehicle>
	<vehicle depart="41.66" departLane="free" departSpeed="max" id="21883" type="CV">
		<route edges="genE296 genE317"/>
	</vehicle>
	<vehicle depart="45.36" departLane="free" departSpeed="max" id="22168" type="HV">
		<route edges="genE316 genE297"/>
	</vehicle>
	<vehicle depart="54.9" departLane="free" departSpeed="max" id="21951" type="CV">
		<route edges="genE296 genE317"/>
	</vehicle>
	<vehicle depart="57.52" departLane="free" departSpeed="max" id="22263" type="HV">
		<route edges="genE316 genE297"/>
	</vehicle>
	<vehicle depart="69.24" departLane="free" departSpeed="max" id="21737" type="HV">
		<route edges="genE296 genE307"/>
	</vehicle>
	<vehicle depart="75.18" departLane="free" departSpeed="max" id="21451" type="HV">
		<route edges="genE318 genE297"/>
	</vehicle>
	<vehicle depart="80.18" departLane="free" departSpeed="max" id="22370" type="CV">
		<route edges="genE316 genE317"/>
	</vehicle>
	<vehicle depart="81.47" departLane="free" departSpeed="max" id="21588" type="HV">
		<route edges="genE318 genE307"/>
	</vehicle>
	<vehicle depart="82.57" departLane="free" departSpeed="max" id="22394" type="HV">
		<route edges="genE316 genE317"/>
	</vehicle>
	<vehicle depart="85.04" departLane="free" departSpeed="max" id="22062" type="HV">
		<route edges="genE296 genE317"/>
	</vehicle>
	<vehicle depart="87.6" departLane="free" departSpeed="max" id="22125" type="HV">
		<route edges="genE316 genE297"/>
	</vehicle>
	<vehicle depart="88.22" departLane="free" departSpeed="max" id="21781" type="HV">
		<route edges="genE296 genE307"/>
	</vehicle>
	<vehicle depart="91.28" departLane="free" departSpeed="max" id="21714" type="HV">
		<route edges="genE296 genE307"/>
	</vehicle>
	<vehicle depart="92.79" departLane="free" departSpeed="max" id="21723" type="HV">
		<route edges="genE296 genE307"/>
	</vehicle>
	<vehicle depart="97.78" departLane="free" departSpeed="max" id="21818" type="HV">
		<route edges="genE296 genE307"/>
	</vehicle>
	<vehicle depart="98.83" departLane="free" departSpeed="max" id="21899" type="HV">
		<route edges="genE296 genE317"/>
	</vehicle>
	<vehicle depart="99.53" departLane="free" departSpeed="max" id="21438" type="CV">
		<route edges="genE318 genE297"/>
	</vehicle>
	<vehicle depart="104.41" departLane="free" departSpeed="max" id="22258" type="HV">
		<route edges="genE316 genE297"/>
	</vehicle>
	<vehicle depart="115.59" departLane="free" departSpeed="max" id="22225" type="HV">
		<route edges="genE316 genE297"/>
	</vehicle>
	<vehicle depart="119.67" departLane="free" departSpeed="max" id="22317" type="HV">
		<route edges="genE316 genE317"/>
	</vehicle>
	<vehicle depart="125.0" departLane="free" departSpeed="max" id="22184" type="HV">
		<route edges="genE316 genE297"/>
	</vehicle>
	<vehicle depart="133.99" departLane="free" departSpeed="max" id="21833" type="HV">
		<route edges="genE296 genE307"/>
	</vehicle>
	<vehicle depart="134.48" departLane="free" departSpeed="max" id="21597" type="HV">
		<route edges="genE318 genE307"/>
	</vehicle>
	<vehicle depart="136.65" departLane="free" departSpeed="max" id="21912" type="CV">
		<route edges="genE296 genE317"/>
	</vehicle>
	<vehicle depart="141.74" departLane="free" departSpeed="max" id="21976" type="HV">
		<route edges="genE296 genE317"/>
	</vehicle>
	<vehicle depart="154.79" departLane="free" departSpeed="max" id="22389" type="HV">
		<route edges="genE316 genE317"/>
	</vehicle>
	<vehicle depart="157.59" departLane="free" departSpeed="max" id="22203" type="CV">
		<route edges="genE316 genE297"/>
	</vehicle>
	<vehicle depart="160.44" departLane="free" departSpeed="max" id="22113" type="CV">
		<route edges="genE316 genE297"/>
	</vehicle>
	<vehicle depart="162.26" departLane="free" departSpeed="max" id="21775" type="HV">
		<route edges="genE296 genE307"/>
	</vehicle>
	<vehicle depart="166.44" departLane="free" departSpeed="max" id="21540" type="HV">
		<route edges="genE318 genE307"/>
	</vehicle>
	<vehicle depart="166.56" departLane="free" departSpeed="max" id="22132" type="CV">
		<route edges="genE316 genE297"/>
	</vehicle>
	<vehicle depart="170.56" departLane="free" departSpeed="max" id="21760" type="CV">
		<route edges="genE296 genE307"/>
	</vehicle>
	<vehicle depart="170.91" departLane="free" departSpeed="max" id="22130" type="HV">
		<route edges="genE316 genE297"/>
	</vehicle>
	<vehicle depart="175.12" departLane="free" departSpeed="max" id="21486" type="HV">
		<route edges="genE318 genE297"/>
	</vehicle>
	<vehicle depart="177.58" departLane="free" departSpeed="max" id="21651" type="HV">
		<route edges="genE318 genE307"/>
	</vehicle>
	<vehicle depart="177.73" departLane="free" departSpeed="max" id="21837" type="HV">
		<route edges="genE296 genE307"/>
	</vehicle>
	<vehicle depart="179.82" departLane="free" departSpeed="max" id="21538" type="HV">
		<route edges="genE318 genE307"/>
	</vehicle>
	<vehicle depart="181.55" departLane="free" departSpeed="max" id="22119" type="HV">
		<route edges="genE316 genE297"/>
	</vehicle>
	<vehicle depart="181.9" departLane="free" departSpeed="max" id="21559" type="HV">
		<route edges="genE318 genE307"/>
	</vehicle>
	<vehicle depart="185.81" departLane="free" departSpeed="max" id="22239" type="HV">
		<route edges="genE316 genE297"/>
	</vehicle>
	<vehicle depart="186.14" departLane="free" departSpeed="max" id="22245" type="HV">
		<route edges="genE316 genE297"/>
	</vehicle>
	<vehicle depart="187.09" departLane="free" departSpeed="max" id="21693" type="HV">
		<route edges="genE296 genE307"/>
	</vehicle>
	<vehicle depart="188.49" departLane="free" departSpeed="max" id="22153" type="HV">
		<route edges="genE316 genE297"/>
	</vehicle>
	<vehicle depart="193.5" departLane="free" departSpeed="max" id="22145" type="HV">
		<route edges="genE316 genE297"/>
	</vehicle>
	<vehicle depart="200.38" departLane="free" departSpeed="max" id="22198" type="CV">
		<route edges="genE316 genE297"/>
	</vehicle>
	<vehicle depart="201.38" departLane="free" departSpeed="max" id="22005" type="CV">
		<route edges="genE296 genE317"/>
	</vehicle>
	<vehicle depart="204.4" departLane="free" departSpeed="max" id="22404" type="CV">
		<route edges="genE316 genE317"/>
	</vehicle>
	<vehicle depart="217.21" departLane="free" departSpeed="max" id="21514" type="HV">
		<route edges="genE318 genE307"/>
	</vehicle>
	<vehicle depart="218.06" departLane="free" departSpeed="max" id="21491" type="HV">
		<route edges="genE318 genE297"/>
	</vehicle>
	<vehicle depart="223.53" departLane="free" departSpeed="max" id="22249" type="HV">
		<route edges="genE316 genE297"/>
	</vehicle>
	<vehicle depart="224.85" departLane="free" departSpeed="max" id="21635" type="HV">
		<route edges="genE318 genE307"/>
	</vehicle>
	<vehicle depart="228.32" departLane="free" departSpeed="max" id="21879" type="CV">
		<route edges="genE296 genE317"/>
	</vehicle>
	<vehicle depart="236.92" departLane="free" departSpeed="max" id="21459" type="HV">
		<route edges="genE318 genE297"/>
	</vehicle>
	<vehicle depart="246.79" departLane="free" departSpeed="max" id="22016" type="HV">
		<route edges="genE296 genE317"/>
	</vehicle>
	<vehicle depart="249.89" departLane="free" departSpeed="max" id="22236" type="HV">
		<route edges="genE316 genE297"/>
	</vehicle>
	<vehicle depart="250.06" departLane="free" departSpeed="max" id="22276" type="HV">
		<route edges="genE316 genE297"/>
	</vehicle>
	<vehicle depart="250.08" departLane="free" departSpeed="max" id="21677" type="HV">
		<route edges="genE296 genE307"/>
	</vehicle>
	<vehicle depart="255.12" departLane="free" departSpeed="max" id="22074" type="HV">
		<route edges="genE316 genE297"/>
	</vehicle>
	<vehicle depart="256.0" departLane="free" departSpeed="max" id="21567" type="HV">
		<route edges="genE318 genE307"/>
	</vehicle>
	<vehicle depart="262.8" departLane="free" departSpeed="max" id="22319" type="HV">
		<route edges="genE316 genE317"/>
	</vehicle>
	<vehicle depart="262.89" departLane="free" departSpeed="max" id="22346" type="HV">
		<route edges="genE316 genE317"/>
	</vehicle>
	<vehicle depart="276.21" departLane="free" departSpeed="max" id="21566" type="CV">
		<route edges="genE318 genE307"/>
	</vehicle>
	<vehicle depart="277.47" departLane="free" departSpeed="max" id="22079" type="HV">
		<route edges="genE316 genE297"/>
	</vehicle>
	<vehicle depart="282.68" departLane="free" departSpeed="max" id="21981" type="CV">
		<route edges="genE296 genE317"/>
	</vehicle>
	<vehicle depart="289.87" departLane="free" departSpeed="max" id="22413" type="HV">
		<route edges="genE316 genE317"/>
	</vehicle>
	<vehicle depart="293.21" departLane="free" departSpeed="max" id="22384" type="HV">
		<route edges="genE316 genE317"/>
	</vehicle>
	<vehicle depart="302.3" departLane="free" departSpeed="max" id="21765" type="HV">
		<route edges="genE296 genE307"/>
	</vehicle>
	<vehicle depart="308.24" departLane="free" departSpeed="max" id="21460" type="HV">
		<route edges="genE318 genE297"/>
	</vehicle>
	<vehicle depart="308.94" departLane="free" departSpeed="max" id="21855" type="HV">
		<route edges="genE296 genE317"/>
	</vehicle>
	<vehicle depart="309.64" departLane="free" departSpeed="max" id="21630" type="HV">
		<route edges="genE318 genE307"/>
	</vehicle>
	<vehicle depart="310.25" departLane="free" departSpeed="max" id="22402" type="HV">
		<route edges="genE316 genE317"/>
	</vehicle>
	<vehicle depart="312.5" departLane="free" departSpeed="max" id="21888" type="HV">
		<route edges="genE296 genE317"/>
	</vehicle>
	<vehicle depart="316.51" departLane="free" departSpeed="max" id="21603" type="CV">
		<route edges="genE318 genE307"/>
	</vehicle>
	<vehicle depart="316.67" departLane="free" departSpeed="max" id="21504" type="HV">
		<route edges="genE318 genE297"/>
	</vehicle>
	<vehicle depart="317.33" departLane="free" departSpeed="max" id="21785" type="HV">
		<route edges="genE296 genE307"/>
	</vehicle>
	<vehicle depart="332.3" departLane="free" departSpeed="max" id="21672" type="HV">
		<route edges="genE296 genE307"/>
	</vehicle>
	<vehicle depart="333.38" departLane="free" departSpeed="max" id="21988" type="HV">
		<route edges="genE296 genE317"/>
	</vehicle>
	<vehicle depart="341.16" departLane="free" departSpeed="max" id="22238" type="HV">
		<route edges="genE316 genE297"/>
	</vehicle>
	<vehicle depart="341.47" departLane="free" departSpeed="max" id="21577" type="HV">
		<route edges="genE318 genE307"/>
	</vehicle>
	<vehicle depart="341.95" departLane="free" departSpeed="max" id="22101" type="HV">
		<route edges="genE316 genE297"/>
	</vehicle>
	<vehicle depart="344.6" departLane="free" departSpeed="max" id="22040" type="HV">
		<route edges="genE296 genE317"/>
	</vehicle>
	<vehicle depart="351.41" departLane="free" departSpeed="max" id="21614" type="HV">
		<route edges="genE318 genE307"/>
	</vehicle>
	<vehicle depart="353.54" departLane="free" departSpeed="max" id="22200" type="CV">
		<route edges="genE316 genE297"/>
	</vehicle>
	<vehicle depart="356.7" departLane="free" departSpeed="max" id="21721" type="HV">
		<route edges="genE296 genE307"/>
	</vehicle>
	<vehicle depart="360.61" departLane="free" departSpeed="max" id="21965" type="HV">
		<route edges="genE296 genE317"/>
	</vehicle>
	<vehicle depart="367.57" departLane="free" departSpeed="max" id="21542" type="HV">
		<route edges="genE318 genE307"/>
	</vehicle>
	<vehicle depart="373.36" departLane="free" departSpeed="max" id="22129" type="CV">
		<route edges="genE316 genE297"/>
	</vehicle>
	<vehicle depart="373.87" departLane="free" departSpeed="max" id="22167" type="HV">
		<route edges="genE316 genE297"/>
	</vehicle>
	<vehicle depart="377.11" departLane="free" departSpeed="max" id="21822" type="HV">
		<route edges="genE296 genE307"/>
	</vehicle>
	<vehicle depart="383.75" departLane="free" departSpeed="max" id="22431" type="HV">
		<route edges="genE316 genE317"/>
	</vehicle>
	<vehicle depart="393.76" departLane="free" departSpeed="max" id="21922" type="HV">
		<route edges="genE296 genE317"/>
	</vehicle>
	<vehicle depart="398.06" departLane="free" departSpeed="max" id="22201" type="HV">
		<route edges="genE316 genE297"/>
	</vehicle>
	<vehicle depart="405.27" departLane="free" departSpeed="max" id="21934" type="HV">
		<route edges="genE296 genE317"/>
	</vehicle>
	<vehicle depart="406.75" departLane="free" departSpeed="max" id="21971" type="HV">
		<route edges="genE296 genE317"/>
	</vehicle>
	<vehicle depart="411.22" departLane="free" departSpeed="max" id="21959" type="HV">
		<route edges="genE296 genE317"/>
	</vehicle>
	<vehicle depart="413.55" departLane="free" departSpeed="max" id="22096" type="HV">
		<route edges="genE316 genE297"/>
	</vehicle>
	<vehicle depart="421.13" departLane="free" departSpeed="max" id="21823" type="HV">
		<route edges="genE296 genE307"/>
	</vehicle>
	<vehicle depart="422.27" departLane="free" departSpeed="max" id="22207" type="HV">
		<route edges="genE316 genE297"/>
	</vehicle>
	<vehicle depart="426.58" departLane="free" departSpeed="max" id="21676" type="HV">
		<route edges="genE296 genE307"/>
	</vehicle>
	<vehicle depart="434.45" departLane="free" departSpeed="max" id="22180" type="HV">
		<route edges="genE316 genE297"/>
	</vehicle>
	<vehicle depart="437.73" departLane="free" departSpeed="max" id="21832" type="HV">
		<route edges="genE296 genE307"/>
	</vehicle>
	<vehicle depart="442.98" departLane="free" departSpeed="max" id="21770" type="HV">
		<route edges="genE296 genE307"/>
	</vehicle>
	<vehicle depart="445.85" departLane="free" departSpeed="max" id="21586" type="HV">
		<route edges="genE318 genE307"/>
	</vehicle>
	<vehicle depart="450.34" departLane="free" departSpeed="max" id="21764" type="HV">
		<route edges="genE296 genE307"/>
	</vehicle>
	<vehicle depart="452.03" departLane="free" departSpeed="max" id="22246" type="HV">
		<route edges="genE316 genE297"/>
	</vehicle>
	<vehicle depart="452.81" departLane="free" departSpeed="max" id="22061" type="HV">
		<route edges="genE296 genE317"/>
	</vehicle>
	<vehicle depart="459.05" departLane="free" departSpeed="max" id="22030" type="CV">
		<route edges="genE296 genE317"/>
	</vehicle>
	<vehicle depart="463.17" departLane="free" departSpeed="max" id="22175" type="CV">
		<route edges="genE316 genE297"/>
	</vehicle>
	<vehicle depart="478.26" departLane="free" departSpeed="max" id="21667" type="HV">
		<route edges="genE296 genE307"/>
	</vehicle>
	<vehicle depart="478.84" departLane="free" departSpeed="max" id="22223" type="HV">
		<route edges="genE316 genE297"/>
	</vehicle>
	<vehicle depart="491.24" departLane="free" departSpeed="max" id="22210" type="HV">
		<route edges="genE316 genE297"/>
	</vehicle>
	<vehicle depart="491.36" departLane="free" departSpeed="max" id="22193" type="CV">
		<route edges="genE316 genE297"/>
	</vehicle>
	<vehicle depart="491.63" departLane="free" departSpeed="max" id="21455" type="HV">
		<route edges="genE318 genE297"/>
	</vehicle>
	<vehicle depart="495.31" departLane="free" departSpeed="max" id="21571" type="HV">
		<route edges="genE318 genE307"/>
	</vehicle>
	<vehicle depart="499.24" departLane="free" departSpeed="max" id="22114" type="HV">
		<route edges="genE316 genE297"/>
	</vehicle>
	<vehicle depart="503.51" departLane="free" departSpeed="max" id="22334" type="HV">
		<route edges="genE316 genE317"/>
	</vehicle>
	<vehicle depart="506.9" departLane="free" departSpeed="max" id="22332" type="HV">
		<route edges="genE316 genE317"/>
	</vehicle>
	<vehicle depart="512.04" departLane="free" departSpeed="max" id="22162" type="HV">
		<route edges="genE316 genE297"/>
	</vehicle>
	<vehicle depart="517.63" departLane="free" departSpeed="max" id="21670" type="HV">
		<route edges="genE296 genE307"/>
	</vehicle>
	<vehicle depart="521.03" departLane="free" departSpeed="max" id="22422" type="HV">
		<route edges="genE316 genE317"/>
	</vehicle>
	<vehicle depart="521.04" departLane="free" departSpeed="max" id="21485" type="HV">
		<route edges="genE318 genE297"/>
	</vehicle>
	<vehicle depart="527.84" departLane="free" departSpeed="max" id="22042" type="HV">
		<route edges="genE296 genE317"/>
	</vehicle>
	<vehicle depart="530.86" departLane="free" departSpeed="max" id="22446" type="HV">
		<route edges="genE316 genE317"/>
	</vehicle>
	<vehicle depart="532.58" departLane="free" departSpeed="max" id="22138" type="HV">
		<route edges="genE316 genE297"/>
	</vehicle>
	<vehicle depart="532.77" departLane="free" departSpeed="max" id="21749" type="CV">
		<route edges="genE296 genE307"/>
	</vehicle>
	<vehicle depart="537.44" departLane="free" departSpeed="max" id="21788" type="HV">
		<route edges="genE296 genE307"/>
	</vehicle>
	<vehicle depart="538.85" departLane="free" departSpeed="max" id="22017" type="HV">
		<route edges="genE296 genE317"/>
	</vehicle>
	<vehicle depart="548.31" departLane="free" departSpeed="max" id="21496" type="CV">
		<route edges="genE318 genE297"/>
	</vehicle>
	<vehicle depart="550.13" departLane="free" departSpeed="max" id="21911" type="HV">
		<route edges="genE296 genE317"/>
	</vehicle>
	<vehicle depart="552.66" departLane="free" departSpeed="max" id="21935" type="HV">
		<route edges="genE296 genE317"/>
	</vehicle>
	<vehicle depart="552.7" departLane="free" departSpeed="max" id="22066" type="HV">
		<route edges="genE316 genE297"/>
	</vehicle>
	<vehicle depart="561.85" departLane="free" departSpeed="max" id="21789" type="HV">
		<route edges="genE296 genE307"/>
	</vehicle>
	<vehicle depart="565.75" departLane="free" departSpeed="max" id="22140" type="HV">
		<route edges="genE316 genE297"/>
	</vehicle>
	<vehicle depart="583.3" departLane="free" departSpeed="max" id="22356" type="HV">
		<route edges="genE316 genE317"/>
	</vehicle>
	<vehicle depart="583.67" departLane="free" departSpeed="max" id="22228" type="HV">
		<route edges="genE316 genE297"/>
	</vehicle>
	<vehicle depart="584.46" departLane="free" departSpeed="max" id="22302" type="HV">
		<route edges="genE316 genE317"/>
	</vehicle>
	<vehicle depart="585.76" departLane="free" departSpeed="max" id="21487" type="HV">
		<route edges="genE318 genE297"/>
	</vehicle>
	<vehicle depart="587.77" departLane="free" departSpeed="max" id="21555" type="HV">
		<route edges="genE318 genE307"/>
	</vehicle>
	<vehicle depart="597.17" departLane="free" departSpeed="max" id="21430" type="HV">
		<route edges="genE318 genE297"/>
	</vehicle>
	<vehicle depart="603.45" departLane="free" departSpeed="max" id="22039" type="CV">
		<route edges="genE296 genE317"/>
	</vehicle>
	<vehicle depart="604.37" departLane="free" departSpeed="max" id="22112" type="HV">
		<route edges="genE316 genE297"/>
	</vehicle>
	<vehicle depart="605.47" departLane="free" departSpeed="max" id="21439" type="HV">
		<route edges="genE318 genE297"/>
	</vehicle>
	<vehicle depart="605.77" departLane="free" departSpeed="max" id="22071" type="HV">
		<route edges="genE316 genE297"/>
	</vehicle>
	<vehicle depart="610.62" departLane="free" departSpeed="max" id="21576" type="CV">
		<route edges="genE318 genE307"/>
	</vehicle>
	<vehicle depart="610.77" departLane="free" departSpeed="max" id="22110" type="HV">
		<route edges="genE316 genE297"/>
	</vehicle>
	<vehicle depart="613.18" departLane="free" departSpeed="max" id="21860" type="HV">
		<route edges="genE296 genE317"/>
	</vehicle>
	<vehicle depart="614.65" departLane="free" departSpeed="max" id="22064" type="CV">
		<route edges="genE296 genE317"/>
	</vehicle>
	<vehicle depart="619.73" departLane="free" departSpeed="max" id="21420" type="HV">
		<route edges="genE318 genE297"/>
	</vehicle>
	<vehicle depart="626.15" departLane="free" departSpeed="max" id="22226" type="CV">
		<route edges="genE316 genE297"/>
	</vehicle>
	<vehicle depart="633.73" departLane="free" departSpeed="max" id="21488" type="HV">
		<route edges="genE318 genE297"/>
	</vehicle>
	<vehicle depart="635.45" departLane="free" departSpeed="max" id="21918" type="HV">
		<route edges="genE296 genE317"/>
	</vehicle>
	<vehicle depart="638.9" departLane="free" departSpeed="max" id="21967" type="HV">
		<route edges="genE296 genE317"/>
	</vehicle>
	<vehicle depart="640.8" departLane="free" departSpeed="max" id="21797" type="CV">
		<route edges="genE296 genE307"/>
	</vehicle>
	<vehicle depart="645.29" departLane="free" departSpeed="max" id="21647" type="HV">
		<route edges="genE318 genE307"/>
	</vehicle>
	<vehicle depart="645.66" departLane="free" departSpeed="max" id="21641" type="CV">
		<route edges="genE318 genE307"/>
	</vehicle>
	<vehicle depart="647.57" departLane="free" departSpeed="max" id="21868" type="HV">
		<route edges="genE296 genE317"/>
	</vehicle>
	<vehicle depart="647.66" departLane="free" departSpeed="max" id="22290" type="HV">
		<route edges="genE316 genE317"/>
	</vehicle>
	<vehicle depart="650.67" departLane="free" departSpeed="max" id="21643" type="CV">
		<route edges="genE318 genE307"/>
	</vehicle>
	<vehicle depart="655.19" departLane="free" departSpeed="max" id="22187" type="HV">
		<route edges="genE316 genE297"/>
	</vehicle>
	<vehicle depart="657.09" departLane="free" departSpeed="max" id="21820" type="HV">
		<route edges="genE296 genE307"/>
	</vehicle>
	<vehicle depart="661.48" departLane="free" departSpeed="max" id="21668" type="CV">
		<route edges="genE296 genE307"/>
	</vehicle>
	<vehicle depart="662.11" departLane="free" departSpeed="max" id="21950" type="CV">
		<route edges="genE296 genE317"/>
	</vehicle>
	<vehicle depart="663.3" departLane="free" departSpeed="max" id="22059" type="HV">
		<route edges="genE296 genE317"/>
	</vehicle>
	<vehicle depart="674.45" departLane="free" departSpeed="max" id="21773" type="CV">
		<route edges="genE296 genE307"/>
	</vehicle>
	<vehicle depart="677.69" departLane="free" departSpeed="max" id="22083" type="CV">
		<route edges="genE316 genE297"/>
	</vehicle>
	<vehicle depart="683.34" departLane="free" departSpeed="max" id="22392" type="CV">
		<route edges="genE316 genE317"/>
	</vehicle>
	<vehicle depart="683.67" departLane="free" departSpeed="max" id="21909" type="HV">
		<route edges="genE296 genE317"/>
	</vehicle>
	<vehicle depart="686.67" departLane="free" departSpeed="max" id="21562" type="HV">
		<route edges="genE318 genE307"/>
	</vehicle>
	<vehicle depart="691.04" departLane="free" departSpeed="max" id="21903" type="HV">
		<route edges="genE296 genE317"/>
	</vehicle>
	<vehicle depart="692.29" departLane="free" departSpeed="max" id="21828" type="HV">
		<route edges="genE296 genE307"/>
	</vehicle>
	<vehicle depart="698.71" departLane="free" departSpeed="max" id="21572" type="HV">
		<route edges="genE318 genE307"/>
	</vehicle>
	<vehicle depart="713.17" departLane="free" departSpeed="max" id="21849" type="HV">
		<route edges="genE296 genE307"/>
	</vehicle>
	<vehicle depart="714.33" departLane="free" departSpeed="max" id="21919" type="HV">
		<route edges="genE296 genE317"/>
	</vehicle>
	<vehicle depart="718.11" departLane="free" departSpeed="max" id="21836" type="HV">
		<route edges="genE296 genE307"/>
	</vehicle>
	<vehicle depart="720.02" departLane="free" departSpeed="max" id="22229" type="CV">
		<route edges="genE316 genE297"/>
	</vehicle>
	<vehicle depart="724.23" departLane="free" departSpeed="max" id="21446" type="HV">
		<route edges="genE318 genE297"/>
	</vehicle>
	<vehicle depart="728.74" departLane="free" departSpeed="max" id="21660" type="CV">
		<route edges="genE296 genE307"/>
	</vehicle>
	<vehicle depart="731.84" departLane="free" departSpeed="max" id="21477" type="HV">
		<route edges="genE318 genE297"/>
	</vehicle>
	<vehicle depart="737.26" departLane="free" departSpeed="max" id="21699" type="CV">
		<route edges="genE296 genE307"/>
	</vehicle>
	<vehicle depart="738.84" departLane="free" departSpeed="max" id="21924" type="HV">
		<route edges="genE296 genE317"/>
	</vehicle>
	<vehicle depart="743.3" departLane="free" departSpeed="max" id="22360" type="HV">
		<route edges="genE316 genE317"/>
	</vehicle>
	<vehicle depart="744.34" departLane="free" departSpeed="max" id="21683" type="HV">
		<route edges="genE296 genE307"/>
	</vehicle>
	<vehicle depart="747.05" departLane="free" departSpeed="max" id="21440" type="HV">
		<route edges="genE318 genE297"/>
	</vehicle>
	<vehicle depart="756.87" departLane="free" departSpeed="max" id="21569" type="CV">
		<route edges="genE318 genE307"/>
	</vehicle>
	<vehicle depart="757.02" departLane="free" departSpeed="max" id="22269" type="HV">
		<route edges="genE316 genE297"/>
	</vehicle>
	<vehicle depart="758.12" departLane="free" departSpeed="max" id="21859" type="HV">
		<route edges="genE296 genE317"/>
	</vehicle>
	<vehicle depart="765.19" departLane="free" departSpeed="max" id="22164" type="HV">
		<route edges="genE316 genE297"/>
	</vehicle>
	<vehicle depart="765.43" departLane="free" departSpeed="max" id="21991" type="HV">
		<route edges="genE296 genE317"/>
	</vehicle>
	<vehicle depart="766.94" departLane="free" departSpeed="max" id="21601" type="HV">
		<route edges="genE318 genE307"/>
	</vehicle>
	<vehicle depart="770.81" departLane="free" departSpeed="max" id="21544" type="CV">
		<route edges="genE318 genE307"/>
	</vehicle>
	<vehicle depart="779.43" departLane="free" departSpeed="max" id="22117" type="HV">
		<route edges="genE316 genE297"/>
	</vehicle>
	<vehicle depart="781.48" departLane="free" departSpeed="max" id="21943" type="HV">
		<route edges="genE296 genE317"/>
	</vehicle>
	<vehicle depart="786.71" departLane="free" departSpeed="max" id="22227" type="HV">
		<route edges="genE316 genE297"/>
	</vehicle>
	<vehicle depart="788.94" departLane="free" departSpeed="max" id="22311" type="HV">
		<route edges="genE316 genE317"/>
	</vehicle>
	<vehicle depart="791.46" departLane="free" departSpeed="max" id="22369" type="HV">
		<route edges="genE316 genE317"/>
	</vehicle>
	<vehicle depart="792.7" departLane="free" departSpeed="max" id="22439" type="HV">
		<route edges="genE316 genE317"/>
	</vehicle>
	<vehicle depart="796.91" departLane="free" departSpeed="max" id="21794" type="HV">
		<route edges="genE296 genE307"/>
	</vehicle>
	<vehicle depart="798.54" departLane="free" departSpeed="max" id="22214" type="CV">
		<route edges="genE316 genE297"/>
	</vehicle>
	<vehicle depart="799.49" departLane="free" departSpeed="max" id="21857" type="HV">
		<route edges="genE296 genE317"/>
	</vehicle>
	<vehicle depart="806.43" departLane="free" departSpeed="max" id="21725" type="HV">
		<route edges="genE296 genE307"/>
	</vehicle>
	<vehicle depart="807.43" departLane="free" departSpeed="max" id="22372" type="HV">
		<route edges="genE316 genE317"/>
	</vehicle>
	<vehicle depart="814.2" departLane="free" departSpeed="max" id="21878" type="HV">
		<route edges="genE296 genE317"/>
	</vehicle>
	<vehicle depart="817.05" departLane="free" departSpeed="max" id="22296" type="HV">
		<route edges="genE316 genE317"/>
	</vehicle>
	<vehicle depart="819.76" departLane="free" departSpeed="max" id="21827" type="CV">
		<route edges="genE296 genE307"/>
	</vehicle>
	<vehicle depart="821.55" departLane="free" departSpeed="max" id="22331" type="CV">
		<route edges="genE316 genE317"/>
	</vehicle>
	<vehicle depart="823.2" departLane="free" departSpeed="max" id="21637" type="HV">
		<route edges="genE318 genE307"/>
	</vehicle>
	<vehicle depart="824.17" departLane="free" departSpeed="max" id="22437" type="HV">
		<route edges="genE316 genE317"/>
	</vehicle>
	<vehicle depart="828.25" departLane="free" departSpeed="max" id="21599" type="CV">
		<route edges="genE318 genE307"/>
	</vehicle>
	<vehicle depart="830.71" departLane="free" departSpeed="max" id="22060" type="HV">
		<route edges="genE296 genE317"/>
	</vehicle>
	<vehicle depart="837.71" departLane="free" departSpeed="max" id="22006" type="CV">
		<route edges="genE296 genE317"/>
	</vehicle>
	<vehicle depart="838.74" departLane="free" departSpeed="max" id="21945" type="CV">
		<route edges="genE296 genE317"/>
	</vehicle>
	<vehicle depart="839.01" departLane="free" departSpeed="max" id="21897" type="HV">
		<route edges="genE296 genE317"/>
	</vehicle>
	<vehicle depart="839.49" departLane="free" departSpeed="max" id="22156" type="HV">
		<route edges="genE316 genE297"/>
	</vehicle>
	<vehicle depart="845.54" departLane="free" departSpeed="max" id="21811" type="CV">
		<route edges="genE296 genE307"/>
	</vehicle>
	<vehicle depart="849.2" departLane="free" departSpeed="max" id="21921" type="HV">
		<route edges="genE296 genE317"/>
	</vehicle>
	<vehicle depart="851.63" departLane="free" departSpeed="max" id="21713" type="HV">
		<route edges="genE296 genE307"/>
	</vehicle>
	<vehicle depart="852.63" departLane="free" departSpeed="max" id="22126" type="HV">
		<route edges="genE316 genE297"/>
	</vehicle>
	<vehicle depart="868.32" departLane="free" departSpeed="max" id="21739" type="HV">
		<route edges="genE296 genE307"/>
	</vehicle>
	<vehicle depart="871.82" departLane="free" departSpeed="max" id="21799" type="HV">
		<route edges="genE296 genE307"/>
	</vehicle>
	<vehicle depart="873.38" departLane="free" departSpeed="max" id="22154" type="HV">
		<route edges="genE316 genE297"/>
	</vehicle>
	<vehicle depart="884.15" departLane="free" departSpeed="max" id="21530" type="HV">
		<route edges="genE318 genE307"/>
	</vehicle>
	<vehicle depart="884.36" departLane="free" departSpeed="max" id="22160" type="HV">
		<route edges="genE316 genE297"/>