<?xml version="1.0" ?>
<routes>
	<vType accel="0.8" decel="4.5" id="CV" length="5" maxSpeed="45" sigma="0.5"/>
	<vType accel="0.8" decel="4.5" id="HV" length="5" maxSpeed="40" sigma="0.5"/>
	<vehicle depart="6.68" departLane="free" departSpeed="max" id="5957" type="HV">
		<route edges="genE296 genE317"/>
	</vehicle>
	<vehicle depart="7.63" departLane="free" departSpeed="max" id="5449" type="HV">
		<route edges="genE318 genE307"/>
	</vehicle>
	<vehicle depart="8.97" departLane="free" departSpeed="max" id="5734" type="CV">
		<route edges="genE296 genE307"/>
	</vehicle>
	<vehicle depart="11.86" departLane="free" departSpeed="max" id="6492" type="HV">
		<route edges="genE316 genE297"/>
	</vehicle>
	<vehicle depart="15.74" departLane="free" departSpeed="max" id="6837" type="HV">
		<route edges="genE316 genE317"/>
	</vehicle>
	<vehicle depart="15.75" departLane="free" departSpeed="max" id="6224" type="HV">
		<route edges="genE316 genE297"/>
	</vehicle>
	<vehicle depart="18.06" departLane="free" departSpeed="max" id="5172" type="HV">
		<route edges="genE318 genE297"/>
	</vehicle>
	<vehicle depart="18.68" departLane="free" departSpeed="max" id="6751" type="HV">
		<route edges="genE316 genE317"/>
	</vehicle>
	<vehicle depart="24.61" departLane="free" departSpeed="max" id="5801" type="HV">
		<route edges="genE296 genE307"/>
	</vehicle>
	<vehicle depart="24.78" departLane="free" departSpeed="max" id="6365" type="HV">
		<route edges="genE316 genE297"/>
	</vehicle>
	<vehicle depart="25.34" departLane="free" departSpeed="max" id="6832" type="HV">
		<route edges="genE316 genE317"/>
	</vehicle>
	<vehicle depart="26.95" departLane="free" departSpeed="max" id="5338" type="HV">
		<route edges="genE318 genE307"/>
	</vehicle>
	<vehicle depart="27.62" departLane="free" departSpeed="max" id="6378" type="HV">
		<route edges="genE316 genE297"/>
	</vehicle>
	<vehicle depart="28.04" departLane="free" departSpeed="max" id="5453" type="HV">
		<route edges="genE318 genE307"/>
	</vehicle>
	<vehicle depart="29.39" departLane="free" departSpeed="max" id="5401" type="HV">
		<route edges="genE318 genE307"/>
	</vehicle>
	<vehicle depart="31.39" departLane="free" departSpeed="max" id="6527" type="HV">
		<route edges="genE316 genE297"/>
	</vehicle>
	<vehicle depart="35.3" departLane="free" departSpeed="max" id="6463" type="HV">
		<route edges="genE316 genE297"/>
	</vehicle>
	<vehicle depart="36.52" departLane="free" departSpeed="max" id="6345" type="HV">
		<route edges="genE316 genE297"/>
	</vehicle>
	<vehicle depart="42.57" departLane="free" departSpeed="max" id="6417" type="HV">
		<route edges="genE316 genE297"/>
	</vehicle>
	<vehicle depart="44.44" departLane="free" departSpeed="max" id="6335" type="HV">
		<route edges="genE316 genE297"/>
	</vehicle>
	<vehicle depart="48.47" departLane="free" departSpeed="max" id="5969" type="HV">
		<route edges="genE296 genE317"/>
	</vehicle>
	<vehicle depart="48.54" departLane="free" departSpeed="max" id="5823" type="HV">
		<route edges="genE296 genE307"/>
	</vehicle>
	<vehicle depart="52.77" departLane="free" departSpeed="max" id="5166" type="CV">
		<route edges="genE318 genE297"/>
	</vehicle>
	<vehicle depart="54.38" departLane="free" departSpeed="max" id="6324" type="HV">
		<route edges="genE316 genE297"/>
	</vehicle>
	<vehicle depart="58.89" departLane="free" departSpeed="max" id="6734" type="HV">
		<route edges="genE316 genE317"/>
	</vehicle>
	<vehicle depart="62.31" departLane="free" departSpeed="max" id="5922" type="HV">
		<route edges="genE296 genE317"/>
	</vehicle>
	<vehicle depart="62.45" departLane="free" departSpeed="max" id="5584" type="HV">
		<route edges="genE296 genE307"/>
	</vehicle>
	<vehicle depart="63.59" departLane="free" departSpeed="max" id="5170" type="HV">
		<route edges="genE318 genE297"/>
	</vehicle>
	<vehicle depart="64.28" departLane="free" departSpeed="max" id="6836" type="HV">
		<route edges="genE316 genE317"/>
	</vehicle>
	<vehicle depart="65.15" departLane="free" departSpeed="max" id="5179" type="CV">
		<route edges="genE318 genE297"/>
	</vehicle>
	<vehicle depart="65.71" departLane="free" departSpeed="max" id="6220" type="HV">
		<route edges="genE316 genE297"/>
	</vehicle>
	<vehicle depart="70.96" departLane="free" departSpeed="max" id="5587" type="HV">
		<route edges="genE296 genE307"/>
	</vehicle>
	<vehicle depart="72.15" departLane="free" departSpeed="max" id="6153" type="CV">
		<route edges="genE296 genE317"/>
	</vehicle>
	<vehicle depart="73.58" departLane="free" departSpeed="max" id="6207" type="CV">
		<route edges="genE296 genE317"/>
	</vehicle>
	<vehicle depart="76.46" departLane="free" departSpeed="max" id="6019" type="CV">
		<route edges="genE296 genE317"/>
	</vehicle>
	<vehicle depart="77.48" departLane="free" departSpeed="max" id="6738" type="HV">
		<route edges="genE316 genE317"/>
	</vehicle>
	<vehicle depart="79.19" departLane="free" departSpeed="max" id="6429" type="HV">
		<route edges="genE316 genE297"/>
	</vehicle>
	<vehicle depart="81.49" departLane="free" departSpeed="max" id="5589" type="CV">
		<route edges="genE296 genE307"/>
	</vehicle>
	<vehicle depart="85.15" departLane="free" departSpeed="max" id="6008" type="HV">
		<route edges="genE296 genE317"/>
	</vehicle>
	<vehicle depart="86.07" departLane="free" departSpeed="max" id="5700" type="HV">
		<route edges="genE296 genE307"/>
	</vehicle>
	<vehicle depart="88.48" departLane="free" departSpeed="max" id="5772" type="HV">
		<route edges="genE296 genE307"/>
	</vehicle>
	<vehicle depart="90.16" departLane="free" departSpeed="max" id="5779" type="HV">
		<route edges="genE296 genE307"/>
	</vehicle>
	<vehicle depart="93.55" departLane="free" departSpeed="max" id="6249" type="CV">
		<route edges="genE316 genE297"/>
	</vehicle>
	<vehicle depart="97.78" departLane="free" departSpeed="max" id="5414" type="HV">
		<route edges="genE318 genE307"/>
	</vehicle>
	<vehicle depart="98.74" departLane="free" departSpeed="max" id="5416" type="HV">
		<route edges="genE318 genE307"/>
	</vehicle>
	<vehicle depart="102.69" departLane="free" departSpeed="max" id="6206" type="HV">
		<route edges="genE296 genE317"/>
	</vehicle>
	<vehicle depart="105.02" departLane="free" departSpeed="max" id="6085" type="CV">
		<route edges="genE296 genE317"/>
	</vehicle>
	<vehicle depart="108.61" departLane="free" departSpeed="max" id="5305" type="HV">
		<route edges="genE318 genE307"/>
	</vehicle>
	<vehicle depart="110.79" departLane="free" departSpeed="max" id="5694" type="CV">
		<route edges="genE296 genE307"/>
	</vehicle>
	<vehicle depart="115.31" departLane="free" departSpeed="max" id="6778" type="CV">
		<route edges="genE316 genE317"/>
	</vehicle>
	<vehicle depart="118.03" departLane="free" departSpeed="max" id="5283" type="HV">
		<route edges="genE318 genE297"/>
	</vehicle>
	<vehicle depart="119.31" departLane="free" departSpeed="max" id="5504" type="HV">
		<route edges="genE318 genE307"/>
	</vehicle>
	<vehicle depart="119.96" departLane="free" departSpeed="max" id="6472" type="HV">
		<route edges="genE316 genE297"/>
	</vehicle>
	<vehicle depart="121.52" departLane="free" departSpeed="max" id="6817" type="HV">
		<route edges="genE316 genE317"/>
	</vehicle>
	<vehicle depart="123.14" departLane="free" departSpeed="max" id="6317" type="HV">
		<route edges="genE316 genE297"/>
	</vehicle>
	<vehicle depart="124.11" departLane="free" departSpeed="max" id="5744" type="HV">
		<route edges="genE296 genE307"/>
	</vehicle>
	<vehicle depart="128.1" departLane="free" departSpeed="max" id="5866" type="HV">
		<route edges="genE296 genE317"/>
	</vehicle>
	<vehicle depart="131.81" departLane="free" departSpeed="max" id="6120" type="HV">
		<route edges="genE296 genE317"/>
	</vehicle>
	<vehicle depart="134.45" departLane="free" departSpeed="max" id="6383" type="CV">
		<route edges="genE316 genE297"/>
	</vehicle>
	<vehicle depart="136.2" departLane="free" departSpeed="max" id="5753" type="HV">
		<route edges="genE296 genE307"/>
	</vehicle>
	<vehicle depart="136.7" departLane="free" departSpeed="max" id="6787" type="HV">
		<route edges="genE316 genE317"/>
	</vehicle>
	<vehicle depart="137.99" departLane="free" departSpeed="max" id="6319" type="CV">
		<route edges="genE316 genE297"/>
	</vehicle>
	<vehicle depart="142.2" departLane="free" departSpeed="max" id="6327" type="HV">
		<route edges="genE316 genE297"/>
	</vehicle>
	<vehicle depart="142.57" departLane="free" departSpeed="max" id="5276" type="HV">
		<route edges="genE318 genE297"/>
	</vehicle>
	<vehicle depart="143.79" departLane="free" departSpeed="max" id="5894" type="HV">
		<route edges="genE296 genE317"/>
	</vehicle>
	<vehicle depart="146.18" departLane="free" departSpeed="max" id="6151" type="CV">
		<route edges="genE296 genE317"/>
	</vehicle>
	<vehicle depart="146.62" departLane="free" departSpeed="max" id="5434" type="HV">
		<route edges="genE318 genE307"/>
	</vehicle>
	<vehicle depart="147.0" departLane="free" departSpeed="max" id="6606" type="HV">
		<route edges="genE316 genE317"/>
	</vehicle>
	<vehicle depart="152.9" departLane="free" departSpeed="max" id="5787" type="CV">
		<route edges="genE296 genE307"/>
	</vehicle>
	<vehicle depart="156.39" departLane="free" departSpeed="max" id="6633" type="HV">
		<route edges="genE316 genE317"/>
	</vehicle>
	<vehicle depart="158.9" departLane="free" departSpeed="max" id="5327" type="HV">
		<route edges="genE318 genE307"/>
	</vehicle>
	<vehicle depart="159.02" departLane="free" departSpeed="max" id="5813" type="HV">
		<route edges="genE296 genE307"/>
	</vehicle>
	<vehicle depart="161.3" departLane="free" departSpeed="max" id="5239" type="CV">
		<route edges="genE318 genE297"/>
	</vehicle>
	<vehicle depart="161.54" departLane="free" departSpeed="max" id="6814" type="HV">
		<route edges="genE316 genE317"/>
	</vehicle>
	<vehicle depart="165.73" departLane="free" departSpeed="max" id="5648" type="HV">
		<route edges="genE296 genE307"/>
	</vehicle>
	<vehicle depart="166.87" departLane="free" departSpeed="max" id="6763" type="HV">
		<route edges="genE316 genE317"/>
	</vehicle>
	<vehicle depart="168.55" departLane="free" departSpeed="max" id="5805" type="HV">
		<route edges="genE296 genE307"/>
	</vehicle>
	<vehicle depart="171.13" departLane="free" departSpeed="max" id="6801" type="HV">
		<route edges="genE316 genE317"/>
	</vehicle>
	<vehicle depart="171.9" departLane="free" departSpeed="max" id="6246" type="HV">
		<route edges="genE316 genE297"/>
	</vehicle>
	<vehicle depart="172.81" departLane="free" departSpeed="max" id="5770" type="HV">
		<route edges="genE296 genE307"/>
	</vehicle>
	<vehicle depart="177.98" departLane="free" departSpeed="max" id="6641" type="HV">
		<route edges="genE316 genE317"/>
	</vehicle>
	<vehicle depart="178.37" departLane="free" departSpeed="max" id="5513" type="HV">
		<route edges="genE318 genE307"/>
	</vehicle>
	<vehicle depart="178.61" departLane="free" departSpeed="max" id="5553" type="CV">
		<route edges="genE296 genE307"/>
	</vehicle>
	<vehicle depart="179.59" departLane="free" departSpeed="max" id="6264" type="CV">
		<route edges="genE316 genE297"/>
	</vehicle>
	<vehicle depart="179.63" departLane="free" departSpeed="max" id="5776" type="HV">
		<route edges="genE296 genE307"/>
	</vehicle>
	<vehicle depart="180.2" departLane="free" departSpeed="max" id="5229" type="HV">
		<route edges="genE318 genE297"/>
	</vehicle>
	<vehicle depart="182.11" departLane="free" departSpeed="max" id="6621" type="HV">
		<route edges="genE316 genE317"/>
	</vehicle>
	<vehicle depart="183.69" departLane="free" departSpeed="max" id="6694" type="CV">
		<route edges="genE316 genE317"/>
	</vehicle>
	<vehicle depart="183.73" departLane="free" departSpeed="max" id="6490" type="HV">
		<route edges="genE316 genE297"/>
	</vehicle>
	<vehicle depart="184.67" departLane="free" departSpeed="max" id="6715" type="CV">
		<route edges="genE316 genE317"/>
	</vehicle>
	<vehicle depart="186.25" departLane="free" departSpeed="max" id="5640" type="HV">
		<route edges="genE296 genE307"/>
	</vehicle>
	<vehicle depart="187.62" departLane="free" departSpeed="max" id="6653" type="HV">
		<route edges="genE316 genE317"/>
	</vehicle>
	<vehicle depart="191.32" departLane="free" departSpeed="max" id="6516" type="HV">
		<route edges="genE316 genE297"/>
	</vehicle>
	<vehicle depart="193.47" departLane="free" departSpeed="max" id="5539" type="CV">
		<route edges="genE318 genE307"/>
	</vehicle>
	<vehicle depart="194.21" departLane="free" departSpeed="max" id="5321" type="CV">
		<route edges="genE318 genE307"/>
	</vehicle>
	<vehicle depart="195.5" departLane="free" departSpeed="max" id="6423" type="HV">
		<route edges="genE316 genE297"/>
	</vehicle>
	<vehicle depart="196.09" departLane="free" departSpeed="max" id="5722" type="HV">
		<route edges="genE296 genE307"/>
	</vehicle>
	<vehicle depart="197.58" departLane="free" departSpeed="max" id="5452" type="HV">
		<route edges="genE318 genE307"/>
	</vehicle>
	<vehicle depart="197.76" departLane="free" departSpeed="max" id="5746" type="HV">
		<route edges="genE296 genE307"/>
	</vehicle>
	<vehicle depart="198.5" departLane="free" departSpeed="max" id="6210" type="HV">
		<route edges="genE316 genE297"/>
	</vehicle>
	<vehicle depart="199.73" departLane="free" departSpeed="max" id="6394" type="CV">
		<route edges="genE316 genE297"/>
	</vehicle>
	<vehicle depart="200.13" departLane="free" departSpeed="max" id="6257" type="HV">
		<route edges="genE316 genE297"/>
	</vehicle>
	<vehicle depart="201.28" departLane="free" departSpeed="max" id="5308" type="CV">
		<route edges="genE318 genE307"/>
	</vehicle>
	<vehicle depart="201.93" departLane="free" departSpeed="max" id="6577" type="CV">
		<route edges="genE316 genE317"/>
	</vehicle>
	<vehicle depart="202.61" departLane="free" departSpeed="max" id="5168" type="HV">
		<route edges="genE318 genE297"/>
	</vehicle>
	<vehicle depart="204.36" departLane="free" departSpeed="max" id="5918" type="HV">
		<route edges="genE296 genE317"/>
	</vehicle>
	<vehicle depart="205.46" departLane="free" departSpeed="max" id="6102" type="HV">
		<route edges="genE296 genE317"/>
	</vehicle>
	<vehicle depart="207.25" departLane="free" departSpeed="max" id="6658" type="HV">
		<route edges="genE316 genE317"/>
	</vehicle>
	<vehicle depart="214.38" departLane="free" departSpeed="max" id="6349" type="HV">
		<route edges="genE316 genE297"/>
	</vehicle>
	<vehicle depart="214.55" departLane="free" departSpeed="max" id="5925" type="HV">
		<route edges="genE296 genE317"/>
	</vehicle>
	<vehicle depart="220.37" departLane="free" departSpeed="max" id="5860" type="HV">
		<route edges="genE296 genE317"/>
	</vehicle>
	<vehicle depart="224.21" departLane="free" departSpeed="max" id="6020" type="HV">
		<route edges="genE296 genE317"/>
	</vehicle>
	<vehicle depart="227.63" departLane="free" departSpeed="max" id="5303" type="HV">
		<route edges="genE318 genE307"/>
	</vehicle>
	<vehicle depart="229.29" departLane="free" departSpeed="max" id="6558" type="HV">
		<route edges="genE316 genE297"/>
	</vehicle>
	<vehicle depart="239.52" departLane="free" departSpeed="max" id="6736" type="HV">
		<route edges="genE316 genE317"/>
	</vehicle>
	<vehicle depart="239.6" departLane="free" departSpeed="max" id="5853" type="HV">
		<route edges="genE296 genE307"/>
	</vehicle>
	<vehicle depart="240.97" departLane="free" departSpeed="max" id="6465" type="HV">
		<route edges="genE316 genE297"/>
	</vehicle>
	<vehicle depart="248.73" departLane="free" departSpeed="max" id="6083" type="HV">
		<route edges="genE296 genE317"/>
	</vehicle>
	<vehicle depart="248.86" departLane="free" departSpeed="max" id="5359" type="HV">
		<route edges="genE318 genE307"/>
	</vehicle>
	<vehicle depart="251.91" departLane="free" departSpeed="max" id="5627" type="HV">
		<route edges="genE296 genE307"/>
	</vehicle>
	<vehicle depart="259.16" departLane="free" departSpeed="max" id="5293" type="HV">
		<route edges="genE318 genE297"/>
	</vehicle>
	<vehicle depart="260.15" departLane="free" departSpeed="max" id="5463" type="HV">
		<route edges="genE318 genE307"/>
	</vehicle>
	<vehicle depart="261.04" departLane="free" departSpeed="max" id="6254" type="HV">
		<route edges="genE316 genE297"/>
	</vehicle>
	<vehicle depart="262.43" departLane="free" departSpeed="max" id="6366" type="HV">
		<route edges="genE316 genE297"/>
	</vehicle>
	<vehicle depart="262.51" departLane="free" departSpeed="max" id="6834" type="HV">
		<route edges="genE316 genE317"/>
	</vehicle>
	<vehicle depart="264.34" departLane="free" departSpeed="max" id="5256" type="HV">
		<route edges="genE318 genE297"/>
	</vehicle>
	<vehicle depart="265.18" departLane="free" departSpeed="max" id="6302" type="HV">
		<route edges="genE316 genE297"/>
	</vehicle>
	<vehicle depart="270.06" departLane="free" departSpeed="max" id="5714" type="HV">
		<route edges="genE296 genE307"/>
	</vehicle>
	<vehicle depart="271.25" departLane="free" departSpeed="max" id="6669" type="CV">
		<route edges="genE316 genE317"/>
	</vehicle>
	<vehicle depart="272.36" departLane="free" departSpeed="max" id="5817" type="CV">
		<route edges="genE296 genE307"/>
	</vehicle>
	<vehicle depart="273.32" departLane="free" departSpeed="max" id="6586" type="HV">
		<route edges="genE316 genE317"/>
	</vehicle>
	<vehicle depart="273.34" departLane="free" departSpeed="max" id="6150" type="CV">
		<route edges="genE296 genE317"/>
	</vehicle>
	<vehicle depart="275.1" departLane="free" departSpeed="max" id="5461" type="HV">
		<route edges="genE318 genE307"/>
	</vehicle>
	<vehicle depart="277.47" departLane="free" departSpeed="max" id="5562" type="HV">
		<route edges="genE296 genE307"/>
	</vehicle>
	<vehicle depart="280.35" departLane="free" departSpeed="max" id="6439" type="HV">
		<route edges="genE316 genE297"/>
	</vehicle>
	<vehicle depart="280.71" departLane="free" departSpeed="max" id="6163" type="HV">
		<route edges="genE296 genE317"/>
	</vehicle>
	<vehicle depart="281.64" departLane="free" departSpeed="max" id="5250" type="CV">
		<route edges="genE318 genE297"/>
	</vehicle>
	<vehicle depart="281.8" departLane="free" departSpeed="max" id="5683" type="HV">
		<route edges="genE296 genE307"/>
	</vehicle>
	<vehicle depart="283.21" departLane="free" departSpeed="max" id="6060" type="HV">
		<route edges="genE296 genE317"/>
	</vehicle>
	<vehicle depart="285.41" departLane="free" departSpeed="max" id="6709" type="HV">
		<route edges="genE316 genE317"/>
	</vehicle>
	<vehicle depart="286.05" departLane="free" departSpeed="max" id="6441" type="HV">
		<route edges="genE316 genE297"/>
	</vehicle>
	<vehicle depart="290.05" departLane="free" departSpeed="max" id="5702" type="HV">
		<route edges="genE296 genE307"/>
	</vehicle>
	<vehicle depart="291.78" departLane="free" departSpeed="max" id="5715" type="HV">
		<route edges="genE296 genE307"/>
	</vehicle>
	<vehicle depart="292.5" departLane="free" departSpeed="max" id="5288" type="HV">
		<route edges="genE318 genE297"/>
	</vehicle>
	<vehicle depart="297.9" departLane="free" departSpeed="max" id="6529" type="CV">
		<route edges="genE316 genE297"/>
	</vehicle>
	<vehicle depart="297.93" departLane="free" departSpeed="max" id="5221" type="HV">
		<route edges="genE318 genE297"/>
	</vehicle>
	<vehicle depart="299.68" departLane="free" departSpeed="max" id="5917" type="HV">
		<route edges="genE296 genE317"/>
	</vehicle>
	<vehicle depart="300.38" departLane="free" departSpeed="max" id="6684" type="CV">
		<route edges="genE316 genE317"/>
	</vehicle>
	<vehicle depart="302.44" departLane="free" departSpeed="max" id="6664" type="HV">
		<route edges="genE316 genE317"/>
	</vehicle>
	<vehicle depart="302.92" departLane="free" departSpeed="max" id="5535" type="HV">
		<route edges="genE318 genE307"/>
	</vehicle>
	<vehicle depart="304.21" departLane="free" departSpeed="max" id="6356" type="HV">
		<route edges="genE316 genE297"/>
	</vehicle>
	<vehicle depart="306.36" departLane="free" departSpeed="max" id="6442" type="CV">
		<route edges="genE316 genE297"/>
	</vehicle>
	<vehicle depart="306.67" departLane="free" departSpeed="max" id="6058" type="HV">
		<route edges="genE296 genE317"/>
	</vehicle>
	<vehicle depart="309.32" departLane="free" departSpeed="max" id="5671" type="HV">
		<route edges="genE296 genE307"/>
	</vehicle>
	<vehicle depart="309.82" departLane="free" departSpeed="max" id="6304" type="CV">
		<route edges="genE316 genE297"/>
	</vehicle>
	<vehicle depart="312.91" departLane="free" departSpeed="max" id="6499" type="HV">
		<route edges="genE316 genE297"/>
	</vehicle>
	<vehicle depart="316.5" departLane="free" departSpeed="max" id="6686" type="HV">
		<route edges="genE316 genE317"/>
	</vehicle>
	<vehicle depart="318.46" departLane="free" departSpeed="max" id="5402" type="HV">
		<route edges="genE318 genE307"/>
	</vehicle>
	<vehicle depart="319.17" departLane="free" departSpeed="max" id="5797" type="HV">
		<route edges="genE296 genE307"/>
	</vehicle>
	<vehicle depart="319.58" departLane="free" departSpeed="max" id="6446" type="HV">
		<route edges="genE316 genE297"/>
	</vehicle>
	<vehicle depart="322.73" departLane="free" departSpeed="max" id="6228" type="HV">
		<route edges="genE316 genE297"/>
	</vehicle>
	<vehicle depart="324.73" departLane="free" departSpeed="max" id="5540" type="CV">
		<route edges="genE318 genE307"/>
	</vehicle>
	<vehicle depart="329.44" departLane="free" departSpeed="max" id="6236" type="HV">
		<route edges="genE316 genE297"/>
	</vehicle>
	<vehicle depart="329.9" departLane="free" departSpeed="max" id="6396" type="HV">
		<route edges="genE316 genE297"/>
	</vehicle>
	<vehicle depart="332.57" departLane="free" departSpeed="max" id="6174" type="HV">
		<route edges="genE296 genE317"/>
	</vehicle>
	<vehicle depart="332.91" departLane="free" departSpeed="max" id="5679" type="HV">
		<route edges="genE296 genE307"/>
	</vehicle>
	<vehicle depart="334.72" departLane="free" departSpeed="max" id="5367" type="CV">
		<route edges="genE318 genE307"/>
	</vehicle>
	<vehicle depart="338.92" departLane="free" departSpeed="max" id="5281" type="CV">
		<route edges="genE318 genE297"/>
	</vehicle>
	<vehicle depart="339.39" departLane="free" departSpeed="max" id="5343" type="HV">
		<route edges="genE318 genE307"/>
	</vehicle>
	<vehicle depart="346.56" departLane="free" departSpeed="max" id="5307" type="HV">
		<route edges="genE318 genE307"/>
	</vehicle>
	<vehicle depart="356.74" departLane="free" departSpeed="max" id="6135" type="HV">
		<route edges="genE296 genE317"/>
	</vehicle>
	<vehicle depart="360.87" departLane="free" departSpeed="max" id="6299" type="HV">
		<route edges="genE316 genE297"/>
	</vehicle>
	<vehicle depart="363.76" departLane="free" departSpeed="max" id="5848" type="CV">
		<route edges="genE296 genE307"/>
	</vehicle>
	<vehicle depart="368.14" departLane="free" departSpeed="max" id="6811" type="HV">
		<route edges="genE316 genE317"/>
	</vehicle>
	<vehicle depart="371.47" departLane="free" departSpeed="max" id="6348" type="HV">
		<route edges="genE316 genE297"/>
	</vehicle>
	<vehicle depart="374.41" departLane="free" departSpeed="max" id="5599" type="CV">
		<route edges="genE296 genE307"/>
	</vehicle>
	<vehicle depart="379.14" departLane="free" departSpeed="max" id="6130" type="HV">
		<route edges="genE296 genE317"/>
	</vehicle>
	<vehicle depart="379.66" departLane="free" departSpeed="max" id="5730" type="HV">
		<route edges="genE296 genE307"/>
	</vehicle>
	<vehicle depart="380.29" departLane="free" departSpeed="max" id="6494" type="HV">
		<route edges="genE316 genE297"/>
	</vehicle>
	<vehicle depart="381.38" departLane="free" departSpeed="max" id="6312" type="HV">
		<route edges="genE316 genE297"/>
	</vehicle>
	<vehicle depart="382.5" departLane="free" departSpeed="max" id="5326" type="HV">
		<route edges="genE318 genE307"/>
	</vehicle>
	<vehicle depart="386.67" departLane="free" departSpeed="max" id="6581" type="HV">
		<route edges="genE316 genE317"/>
	</vehicle>
	<vehicle depart="387.52" departLane="free" departSpeed="max" id="6063" type="HV">
		<route edges="genE296 genE317"/>
	</vehicle>
	<vehicle depart="387.75" departLane="free" departSpeed="max" id="5482" type="HV">
		<route edges="genE318 genE307"/>
	</vehicle>
	<vehicle depart="391.85" departLane="free" departSpeed="max" id="6816" type="HV">
		<route edges="genE316 genE317"/>
	</vehicle>
	<vehicle depart="393.22" departLane="free" departSpeed="max" id="6318" type="HV">
		<route edges="genE316 genE297"/>
	</vehicle>
	<vehicle depart="393.9" departLane="free" departSpeed="max" id="5478" type="HV">
		<route edges="genE318 genE307"/>
	</vehicle>
	<vehicle depart="394.49" departLane="free" departSpeed="max" id="6697" type="CV">
		<route edges="genE316 genE317"/>
	</vehicle>
	<vehicle depart="394.58" departLane="free" departSpeed="max" id="5234" type="HV">
		<route edges="genE318 genE297"/>
	</vehicle>
	<vehicle depart="394.75" departLane="free" departSpeed="max" id="6067" type="HV">
		<route edges="genE296 genE317"/>
	</vehicle>
	<vehicle depart="396.42" departLane="free" departSpeed="max" id="5413" type="CV">
		<route edges="genE318 genE307"/>
	</vehicle>
	<vehicle depart="397.13" departLane="free" departSpeed="max" id="5334" type="CV">
		<route edges="genE318 genE307"/>
	</vehicle>
	<vehicle depart="398.41" departLane="free" departSpeed="max" id="5217" type="CV">
		<route edges="genE318 genE297"/>
	</vehicle>
	<vehicle depart="405.73" departLane="free" departSpeed="max" id="5895" type="HV">
		<route edges="genE296 genE317"/>
	</vehicle>
	<vehicle depart="411.74" departLane="free" departSpeed="max" id="6719" type="HV">
		<route edges="genE316 genE317"/>
	</vehicle>
	<vehicle depart="413.01" departLane="free" departSpeed="max" id="5237" type="HV">
		<route edges="genE318 genE297"/>
	</vehicle>
	<vehicle depart="424.76" departLane="free" departSpeed="max" id="6575" type="HV">
		<route edges="genE316 genE317"/>
	</vehicle>
	<vehicle depart="428.19" departLane="free" departSpeed="max" id="6121" type="CV">
		<route edges="genE296 genE317"/>
	</vehicle>
	<vehicle depart="428.7" departLane="free" departSpeed="max" id="6582" type="HV">
		<route edges="genE316 genE317"/>
	</vehicle>
	<vehicle depart="429.23" departLane="free" departSpeed="max" id="5593" type="HV">
		<route edges="genE296 genE307"/>
	</vehicle>
	<vehicle depart="431.36" departLane="free" departSpeed="max" id="5190" type="CV">
		<route edges="genE318 genE297"/>
	</vehicle>
	<vehicle depart="432.12" departLane="free" departSpeed="max" id="6542" type="CV">
		<route edges="genE316 genE297"/>
	</vehicle>
	<vehicle depart="433.04" departLane="free" departSpeed="max" id="6047" type="HV">
		<route edges="genE296 genE317"/>
	</vehicle>
	<vehicle depart="436.58" departLane="free" departSpeed="max" id="5538" type="CV">
		<route edges="genE318 genE307"/>
	</vehicle>
	<vehicle depart="441.15" departLane="free" departSpeed="max" id="6230" type="HV">
		<route edges="genE316 genE297"/>
	</vehicle>
	<vehicle depart="441.76" departLane="free" departSpeed="max" id="5807" type="CV">
		<route edges="genE296 genE307"/>
	</vehicle>
	<vehicle depart="443.87" departLane="free" departSpeed="max" id="5189" type="HV">
		<route edges="genE318 genE297"/>
	</vehicle>
	<vehicle depart="447.45" departLane="free" departSpeed="max" id="5935" type="HV">
		<route edges="genE296 genE317"/>
	</vehicle>
	<vehicle depart="447.94" departLane="free" departSpeed="max" id="6036" type="HV">
		<route edges="genE296 genE317"/>
	</vehicle>
	<vehicle depart="449.48" departLane="free" departSpeed="max" id="6040" type="HV">
		<route edges="genE296 genE317"/>
	</vehicle>
	<vehicle depart="455.15" departLane="free" departSpeed="max" id="6074" type="HV">
		<route edges="genE296 genE317"/>
	</vehicle>
	<vehicle depart="455.81" departLane="free" departSpeed="max" id="6255" type="HV">
		<route edges="genE316 genE297"/>
	</vehicle>
	<vehicle depart="457.82" departLane="free" departSpeed="max" id="6587" type="HV">
		<route edges="genE316 genE317"/>
	</vehicle>
	<vehicle depart="458.97" departLane="free" departSpeed="max" id="6309" type="CV">
		<route edges="genE316 genE297"/>
	</vehicle>
	<vehicle depart="464.9" departLane="free" departSpeed="max" id="5496" type="HV">
		<route edges="genE318 genE307"/>
	</vehicle>
	<vehicle depart="467.4" departLane="free" departSpeed="max" id="6364" type="HV">
		<route edges="genE316 genE297"/>
	</vehicle>
	<vehicle depart="467.9" departLane="free" departSpeed="max" id="6243" type="HV">
		<route edges="genE316 genE297"/>
	</vehicle>
	<vehicle depart="470.05" departLane="free" departSpeed="max" id="5394" type="HV">
		<route edges="genE318 genE307"/>
	</vehicle>
	<vehicle depart="475.31" departLane="free" departSpeed="max" id="6764" type="CV">
		<route edges="genE316 genE317"/>
	</vehicle>
	<vehicle depart="475.89" departLane="free" departSpeed="max" id="5742" type="HV">
		<route edges="genE296 genE307"/>
	</vehicle>
	<vehicle depart="476.46" departLane="free" departSpeed="max" id="6114" type="HV">
		<route edges="genE296 genE317"/>
	</vehicle>
	<vehicle depart="476.6" departLane="free" departSpeed="max" id="5469" type="HV">
		<route edges="genE318 genE307"/>
	</vehicle>
	<vehicle depart="477.13" departLane="free" departSpeed="max" id="5741" type="HV">
		<route edges="genE296 genE307"/>
	</vehicle>
	<vehicle depart="480.3" departLane="free" departSpeed="max" id="6473" type="HV">
		<route edges="genE316 genE297"/>
	</vehicle>
	<vehicle depart="480.87" departLane="free" departSpeed="max" id="6162" type="CV">
		<route edges="genE296 genE317"/>
	</vehicle>
	<vehicle depart="481.29" departLane="free" departSpeed="max" id="5687" type="HV">
		<route edges="genE296 genE307"/>
	</vehicle>
	<vehicle depart="485.21" departLane="free" departSpeed="max" id="5896" type="HV">
		<route edges="genE296 genE317"/>
	</vehicle>
	<vehicle depart="485.37" departLane="free" departSpeed="max" id="5855" type="HV">
		<route edges="genE296 genE307"/>
	</vehicle>
	<vehicle depart="485.98" departLane="free" departSpeed="max" id="6822" type="HV">
		<route edges="genE316 genE317"/>
	</vehicle>
	<vehicle depart="486.9" departLane="free" departSpeed="max" id="5515" type="HV">