<?xml version="1.0" ?>
<routes>
	<vType accel="0.8" decel="4.5" id="CV" length="5" maxSpeed="45" sigma="0.5"/>
	<vType accel="0.8" decel="4.5" id="HV" length="5" maxSpeed="40" sigma="0.5"/>
	<vehicle depart="16.08" departLane="free" departSpeed="max" id="1344" type="HV">
		<route edges="genE316 genE317"/>
	</vehicle>
	<vehicle depart="22.82" departLane="free" departSpeed="max" id="1390" type="CV">
		<route edges="genE316 genE317"/>
	</vehicle>
	<vehicle depart="23.89" departLane="free" departSpeed="max" id="1137" type="HV">
		<route edges="genE296 genE317"/>
	</vehicle>
	<vehicle depart="32.14" departLane="free" departSpeed="max" id="1380" type="HV">
		<route edges="genE316 genE317"/>
	</vehicle>
	<vehicle depart="36.35" departLane="free" departSpeed="max" id="1282" type="HV">
		<route edges="genE316 genE297"/>
	</vehicle>
	<vehicle depart="44.99" departLane="free" departSpeed="max" id="1409" type="HV">
		<route edges="genE316 genE317"/>
	</vehicle>
	<vehicle depart="49.05" departLane="free" departSpeed="max" id="1237" type="CV">
		<route edges="genE316 genE297"/>
	</vehicle>
	<vehicle depart="55.39" departLane="free" departSpeed="max" id="1320" type="CV">
		<route edges="genE316 genE297"/>
	</vehicle>
	<vehicle depart="57.01" departLane="free" departSpeed="max" id="952" type="HV">
		<route edges="genE318 genE307"/>
	</vehicle>
	<vehicle depart="59.07" departLane="free" departSpeed="max" id="1044" type="HV">
		<route edges="genE296 genE307"/>
	</vehicle>
	<vehicle depart="60.19" departLane="free" departSpeed="max" id="946" type="HV">
		<route edges="genE318 genE307"/>
	</vehicle>
	<vehicle depart="63.18" departLane="free" departSpeed="max" id="1147" type="CV">
		<route edges="genE296 genE317"/>
	</vehicle>
	<vehicle depart="72.86" departLane="free" departSpeed="max" id="1069" type="HV">
		<route edges="genE296 genE307"/>
	</vehicle>
	<vehicle depart="89.14" departLane="free" departSpeed="max" id="999" type="HV">
		<route edges="genE318 genE307"/>
	</vehicle>
	<vehicle depart="94.16" departLane="free" departSpeed="max" id="1360" type="HV">
		<route edges="genE316 genE317"/>
	</vehicle>
	<vehicle depart="95.9" departLane="free" departSpeed="max" id="909" type="CV">
		<route edges="genE318 genE297"/>
	</vehicle>
	<vehicle depart="100.27" departLane="free" departSpeed="max" id="1377" type="HV">
		<route edges="genE316 genE317"/>
	</vehicle>
	<vehicle depart="108.76" departLane="free" departSpeed="max" id="1330" type="HV">
		<route edges="genE316 genE297"/>
	</vehicle>
	<vehicle depart="127.28" departLane="free" departSpeed="max" id="938" type="HV">
		<route edges="genE318 genE297"/>
	</vehicle>
	<vehicle depart="135.95" departLane="free" departSpeed="max" id="1247" type="HV">
		<route edges="genE316 genE297"/>
	</vehicle>
	<vehicle depart="138.74" departLane="free" departSpeed="max" id="914" type="HV">
		<route edges="genE318 genE297"/>
	</vehicle>
	<vehicle depart="152.8" departLane="free" departSpeed="max" id="1333" type="CV">
		<route edges="genE316 genE317"/>
	</vehicle>
	<vehicle depart="158.23" departLane="free" departSpeed="max" id="1408" type="CV">
		<route edges="genE316 genE317"/>
	</vehicle>
	<vehicle depart="179.28" departLane="free" departSpeed="max" id="1046" type="HV">
		<route edges="genE296 genE307"/>
	</vehicle>
	<vehicle depart="185.27" departLane="free" departSpeed="max" id="1016" type="CV">
		<route edges="genE318 genE307"/>
	</vehicle>
	<vehicle depart="218.23" departLane="free" departSpeed="max" id="912" type="HV">
		<route edges="genE318 genE297"/>
	</vehicle>
	<vehicle depart="219.03" departLane="free" departSpeed="max" id="1208" type="HV">
		<route edges="genE296 genE317"/>
	</vehicle>
	<vehicle depart="220.53" departLane="free" departSpeed="max" id="1055" type="HV">
		<route edges="genE296 genE307"/>
	</vehicle>
	<vehicle depart="227.5" departLane="free" departSpeed="max" id="958" type="CV">
		<route edges="genE318 genE307"/>
	</vehicle>
	<vehicle depart="232.39" departLane="free" departSpeed="max" id="1093" type="HV">
		<route edges="genE296 genE307"/>
	</vehicle>
	<vehicle depart="234.85" departLane="free" departSpeed="max" id="1177" type="HV">
		<route edges="genE296 genE317"/>
	</vehicle>
	<vehicle depart="236.2" departLane="free" departSpeed="max" id="939" type="CV">
		<route edges="genE318 genE297"/>
	</vehicle>
	<vehicle depart="243.18" departLane="free" departSpeed="max" id="1217" type="HV">
		<route edges="genE296 genE317"/>
	</vehicle>
	<vehicle depart="248.19" departLane="free" departSpeed="max" id="911" type="HV">
		<route edges="genE318 genE297"/>
	</vehicle>
	<vehicle depart="262.29" departLane="free" departSpeed="max" id="1144" type="HV">
		<route edges="genE296 genE317"/>
	</vehicle>
	<vehicle depart="275.61" departLane="free" departSpeed="max" id="1293" type="HV">
		<route edges="genE316 genE297"/>
	</vehicle>
	<vehicle depart="298.61" departLane="free" departSpeed="max" id="1030" type="HV">
		<route edges="genE296 genE307"/>
	</vehicle>
	<vehicle depart="302.63" departLane="free" departSpeed="max" id="955" type="HV">
		<route edges="genE318 genE307"/>
	</vehicle>
	<vehicle depart="307.36" departLane="free" departSpeed="max" id="1285" type="HV">
		<route edges="genE316 genE297"/>
	</vehicle>
	<vehicle depart="310.17" departLane="free" departSpeed="max" id="1193" type="HV">
		<route edges="genE296 genE317"/>
	</vehicle>
	<vehicle depart="315.96" departLane="free" departSpeed="max" id="1295" type="CV">
		<route edges="genE316 genE297"/>
	</vehicle>
	<vehicle depart="318.06" departLane="free" departSpeed="max" id="1040" type="CV">
		<route edges="genE296 genE307"/>
	</vehicle>
	<vehicle depart="319.74" departLane="free" departSpeed="max" id="1228" type="HV">
		<route edges="genE316 genE297"/>
	</vehicle>
	<vehicle depart="328.68" departLane="free" departSpeed="max" id="1267" type="HV">
		<route edges="genE316 genE297"/>
	</vehicle>
	<vehicle depart="338.45" departLane="free" departSpeed="max" id="925" type="HV">
		<route edges="genE318 genE297"/>
	</vehicle>
	<vehicle depart="342.57" departLane="free" departSpeed="max" id="1181" type="HV">
		<route edges="genE296 genE317"/>
	</vehicle>
	<vehicle depart="352.84" departLane="free" departSpeed="max" id="1198" type="HV">
		<route edges="genE296 genE317"/>
	</vehicle>
	<vehicle depart="370.43" departLane="free" departSpeed="max" id="1273" type="HV">
		<route edges="genE316 genE297"/>
	</vehicle>
	<vehicle depart="391.58" departLane="free" departSpeed="max" id="1052" type="HV">
		<route edges="genE296 genE307"/>
	</vehicle>
	<vehicle depart="397.95" departLane="free" departSpeed="max" id="1379" type="HV">
		<route edges="genE316 genE317"/>
	</vehicle>
	<vehicle depart="400.21" departLane="free" departSpeed="max" id="937" type="CV">
		<route edges="genE318 genE297"/>
	</vehicle>
	<vehicle depart="400.25" departLane="free" departSpeed="max" id="1393" type="HV">
		<route edges="genE316 genE317"/>
	</vehicle>
	<vehicle depart="401.34" departLane="free" departSpeed="max" id="1114" type="HV">
		<route edges="genE296 genE307"/>
	</vehicle>
	<vehicle depart="408.4" departLane="free" departSpeed="max" id="954" type="CV">
		<route edges="genE318 genE307"/>
	</vehicle>
	<vehicle depart="410.22" departLane="free" departSpeed="max" id="1406" type="HV">
		<route edges="genE316 genE317"/>
	</vehicle>
	<vehicle depart="414.29" departLane="free" departSpeed="max" id="1120" type="CV">
		<route edges="genE296 genE317"/>
	</vehicle>
	<vehicle depart="417.91" departLane="free" departSpeed="max" id="1352" type="HV">
		<route edges="genE316 genE317"/>
	</vehicle>
	<vehicle depart="418.12" departLane="free" departSpeed="max" id="1187" type="HV">
		<route edges="genE296 genE317"/>
	</vehicle>
	<vehicle depart="421.45" departLane="free" departSpeed="max" id="1224" type="HV">
		<route edges="genE296 genE317"/>
	</vehicle>
	<vehicle depart="431.82" departLane="free" departSpeed="max" id="976" type="HV">
		<route edges="genE318 genE307"/>
	</vehicle>
	<vehicle depart="435.89" departLane="free" departSpeed="max" id="1306" type="HV">
		<route edges="genE316 genE297"/>
	</vehicle>
	<vehicle depart="445.9" departLane="free" departSpeed="max" id="1088" type="CV">
		<route edges="genE296 genE307"/>
	</vehicle>
	<vehicle depart="454.94" departLane="free" departSpeed="max" id="1378" type="HV">
		<route edges="genE316 genE317"/>
	</vehicle>
	<vehicle depart="455.01" departLane="free" departSpeed="max" id="1312" type="HV">
		<route edges="genE316 genE297"/>
	</vehicle>
	<vehicle depart="458.37" departLane="free" departSpeed="max" id="1121" type="HV">
		<route edges="genE296 genE317"/>
	</vehicle>
	<vehicle depart="464.31" departLane="free" departSpeed="max" id="1270" type="HV">
		<route edges="genE316 genE297"/>
	</vehicle>
	<vehicle depart="468.04" departLane="free" departSpeed="max" id="1094" type="CV">
		<route edges="genE296 genE307"/>
	</vehicle>
	<vehicle depart="469.0" departLane="free" departSpeed="max" id="1148" type="HV">
		<route edges="genE296 genE317"/>
	</vehicle>
	<vehicle depart="481.8" departLane="free" departSpeed="max" id="1345" type="HV">
		<route edges="genE316 genE317"/>
	</vehicle>
	<vehicle depart="484.02" departLane="free" departSpeed="max" id="1158" type="HV">
		<route edges="genE296 genE317"/>
	</vehicle>
	<vehicle depart="489.79" departLane="free" departSpeed="max" id="1184" type="CV">
		<route edges="genE296 genE317"/>
	</vehicle>
	<vehicle depart="490.23" departLane="free" departSpeed="max" id="1258" type="CV">
		<route edges="genE316 genE297"/>
	</vehicle>
	<vehicle depart="492.23" departLane="free" departSpeed="max" id="1366" type="HV">
		<route edges="genE316 genE317"/>
	</vehicle>
	<vehicle depart="495.99" departLane="free" departSpeed="max" id="1311" type="HV">
		<route edges="genE316 genE297"/>
	</vehicle>
	<vehicle depart="504.76" departLane="free" departSpeed="max" id="1308" type="HV">
		<route edges="genE316 genE297"/>
	</vehicle>
	<vehicle depart="509.5" departLane="free" departSpeed="max" id="1132" type="HV">
		<route edges="genE296 genE317"/>
	</vehicle>
	<vehicle depart="516.47" departLane="free" departSpeed="max" id="1008" type="HV">
		<route edges="genE318 genE307"/>
	</vehicle>
	<vehicle depart="523.34" departLane="free" departSpeed="max" id="1235" type="HV">
		<route edges="genE316 genE297"/>
	</vehicle>
	<vehicle depart="523.56" departLane="free" departSpeed="max" id="963" type="HV">
		<route edges="genE318 genE307"/>
	</vehicle>
	<vehicle depart="533.19" departLane="free" departSpeed="max" id="1412" type="HV">
		<route edges="genE316 genE317"/>
	</vehicle>
	<vehicle depart="534.76" departLane="free" departSpeed="max" id="1207" type="CV">
		<route edges="genE296 genE317"/>
	</vehicle>
	<vehicle depart="549.45" departLane="free" departSpeed="max" id="1140" type="HV">
		<route edges="genE296 genE317"/>
	</vehicle>
	<vehicle depart="567.42" departLane="free" departSpeed="max" id="1226" type="HV">
		<route edges="genE316 genE297"/>
	</vehicle>
	<vehicle depart="590.69" departLane="free" departSpeed="max" id="1053" type="HV">
		<route edges="genE296 genE307"/>
	</vehicle>
	<vehicle depart="600.21" departLane="free" departSpeed="max" id="1353" type="HV">
		<route edges="genE316 genE317"/>
	</vehicle>
	<vehicle depart="606.98" departLane="free" departSpeed="max" id="1072" type="HV">
		<route edges="genE296 genE307"/>
	</vehicle>
	<vehicle depart="611.17" departLane="free" departSpeed="max" id="1303" type="HV">
		<route edges="genE316 genE297"/>
	</vehicle>
	<vehicle depart="613.2" departLane="free" departSpeed="max" id="1105" type="HV">
		<route edges="genE296 genE307"/>
	</vehicle>
	<vehicle depart="622.58" departLane="free" departSpeed="max" id="1256" type="HV">
		<route edges="genE316 genE297"/>
	</vehicle>
	<vehicle depart="639.33" departLane="free" departSpeed="max" id="1129" type="HV">
		<route edges="genE296 genE317"/>
	</vehicle>
	<vehicle depart="644.27" departLane="free" departSpeed="max" id="1239" type="CV">
		<route edges="genE316 genE297"/>
	</vehicle>
	<vehicle depart="650.58" departLane="free" departSpeed="max" id="1328" type="CV">
		<route edges="genE316 genE297"/>
	</vehicle>
	<vehicle depart="658.55" departLane="free" departSpeed="max" id="996" type="HV">
		<route edges="genE318 genE307"/>
	</vehicle>
	<vehicle depart="659.18" departLane="free" departSpeed="max" id="1097" type="CV">
		<route edges="genE296 genE307"/>
	</vehicle>
	<vehicle depart="664.19" departLane="free" departSpeed="max" id="1170" type="CV">
		<route edges="genE296 genE317"/>
	</vehicle>
	<vehicle depart="673.69" departLane="free" departSpeed="max" id="1078" type="CV">
		<route edges="genE296 genE307"/>
	</vehicle>
	<vehicle depart="675.07" departLane="free" departSpeed="max" id="964" type="HV">
		<route edges="genE318 genE307"/>
	</vehicle>
	<vehicle depart="683.54" departLane="free" departSpeed="max" id="1023" type="CV">
		<route edges="genE296 genE307"/>
	</vehicle>
	<vehicle depart="684.85" departLane="free" departSpeed="max" id="1300" type="HV">
		<route edges="genE316 genE297"/>
	</vehicle>
	<vehicle depart="696.17" departLane="free" departSpeed="max" id="1296" type="HV">
		<route edges="genE316 genE297"/>
	</vehicle>
	<vehicle depart="705.33" departLane="free" departSpeed="max" id="1006" type="HV">
		<route edges="genE318 genE307"/>
	</vehicle>
	<vehicle depart="706.88" departLane="free" departSpeed="max" id="940" type="HV">
		<route edges="genE318 genE297"/>
	</vehicle>
	<vehicle depart="713.78" departLane="free" departSpeed="max" id="1029" type="HV">
		<route edges="genE296 genE307"/>
	</vehicle>
	<vehicle depart="714.18" departLane="free" departSpeed="max" id="1131" type="CV">
		<route edges="genE296 genE317"/>
	</vehicle>
	<vehicle depart="716.18" departLane="free" departSpeed="max" id="1059" type="HV">
		<route edges="genE296 genE307"/>
	</vehicle>
	<vehicle depart="718.11" departLane="free" departSpeed="max" id="1263" type="HV">
		<route edges="genE316 genE297"/>
	</vehicle>
	<vehicle depart="725.39" departLane="free" departSpeed="max" id="966" type="HV">
		<route edges="genE318 genE307"/>
	</vehicle>
	<vehicle depart="730.8" departLane="free" departSpeed="max" id="980" type="HV">
		<route edges="genE318 genE307"/>
	</vehicle>
	<vehicle depart="731.36" departLane="free" departSpeed="max" id="1298" type="HV">
		<route edges="genE316 genE297"/>
	</vehicle>
	<vehicle depart="737.09" departLane="free" departSpeed="max" id="1068" type="HV">
		<route edges="genE296 genE307"/>
	</vehicle>
	<vehicle depart="758.9" departLane="free" departSpeed="max" id="1173" type="HV">
		<route edges="genE296 genE317"/>
	</vehicle>
	<vehicle depart="762.07" departLane="free" departSpeed="max" id="1289" type="HV">
		<route edges="genE316 genE297"/>
	</vehicle>
	<vehicle depart="767.87" departLane="free" departSpeed="max" id="1336" type="HV">
		<route edges="genE316 genE317"/>
	</vehicle>
	<vehicle depart="770.74" departLane="free" departSpeed="max" id="929" type="HV">
		<route edges="genE318 genE297"/>
	</vehicle>
	<vehicle depart="773.46" departLane="free" departSpeed="max" id="1403" type="HV">
		<route edges="genE316 genE317"/>
	</vehicle>
	<vehicle depart="786.61" departLane="free" departSpeed="max" id="1316" type="HV">
		<route edges="genE316 genE297"/>
	</vehicle>
	<vehicle depart="793.48" departLane="free" departSpeed="max" id="902" type="HV">
		<route edges="genE318 genE297"/>
	</vehicle>
	<vehicle depart="807.19" departLane="free" departSpeed="max" id="1315" type="HV">
		<route edges="genE316 genE297"/>
	</vehicle>
	<vehicle depart="810.45" departLane="free" departSpeed="max" id="1388" type="HV">
		<route edges="genE316 genE317"/>
	</vehicle>
	<vehicle depart="823.09" departLane="free" departSpeed="max" id="1244" type="HV">
		<route edges="genE316 genE297"/>
	</vehicle>
	<vehicle depart="835.69" departLane="free" departSpeed="max" id="1251" type="CV">
		<route edges="genE316 genE297"/>
	</vehicle>
	<vehicle depart="837.46" departLane="free" departSpeed="max" id="1334" type="CV">
		<route edges="genE316 genE317"/>
	</vehicle>
	<vehicle depart="860.65" departLane="free" departSpeed="max" id="1174" type="HV">
		<route edges="genE296 genE317"/>
	</vehicle>
	<vehicle depart="862.01" departLane="free" departSpeed="max" id="1099" type="HV">
		<route edges="genE296 genE307"/>
	</vehicle>
	<vehicle depart="868.35" departLane="free" departSpeed="max" id="1382" type="HV">
		<route edges="genE316 genE317"/>
	</vehicle>
	<vehicle depart="877.43" departLane="free" departSpeed="max" id="1090" type="HV">
		<route edges="genE296 genE307"/>
	</vehicle>
	<vehicle depart="878.42" departLane="free" departSpeed="max" id="1266" type="HV">
		<route edges="genE316 genE297"/>
	</vehicle>
	<vehicle depart="899.9" departLane="free" departSpeed="max" id="1257" type="HV">
		<route edges="genE316 genE297"/>
	</vehicle>
	<vehicle depart="901.04" departLane="free" departSpeed="max" id="969" type="HV">
		<route edges="genE318 genE307"/>
	</vehicle>
	<vehicle depart="907.06" departLane="free" departSpeed="max" id="920" type="HV">
		<route edges="genE318 genE297"/>
	</vehicle>
	<vehicle depart="916.75" departLane="free" departSpeed="max" id="1204" type="CV">
		<route edges="genE296 genE317"/>
	</vehicle>
	<vehicle depart="925.54" departLane="free" departSpeed="max" id="1236" type="HV">
		<route edges="genE316 genE297"/>
	</vehicle>
	<vehicle depart="929.44" departLane="free" departSpeed="max" id="1371" type="HV">
		<route edges="genE316 genE317"/>
	</vehicle>
	<vehicle depart="930.8" departLane="free" departSpeed="max" id="1347" type="HV">
		<route edges="genE316 genE317"/>
	</vehicle>
	<vehicle depart="931.5" departLane="free" departSpeed="max" id="1056" type="HV">
		<route edges="genE296 genE307"/>
	</vehicle>
	<vehicle depart="932.17" departLane="free" departSpeed="max" id="986" type="HV">
		<route edges="genE318 genE307"/>
	</vehicle>
	<vehicle depart="938.6" departLane="free" departSpeed="max" id="1194" type="HV">
		<route edges="genE296 genE317"/>
	</vehicle>
	<vehicle depart="946.44" departLane="free" departSpeed="max" id="1067" type="CV">
		<route edges="genE296 genE307"/>
	</vehicle>
	<vehicle depart="947.81" departLane="free" departSpeed="max" id="1000" type="CV">
		<route edges="genE318 genE307"/>
	</vehicle>
	<vehicle depart="958.14" departLane="free" departSpeed="max" id="1146" type="HV">
		<route edges="genE296 genE317"/>
	</vehicle>
	<vehicle depart="964.72" departLane="free" departSpeed="max" id="935" type="HV">
		<route edges="genE318 genE297"/>
	</vehicle>
	<vehicle depart="967.82" departLane="free" departSpeed="max" id="1413" type="HV">
		<route edges="genE316 genE317"/>
	</vehicle>
	<vehicle depart="972.8" departLane="free" departSpeed="max" id="1017" type="HV">
		<route edges="genE318 genE307"/>
	</vehicle>
	<vehicle depart="997.09" departLane="free" departSpeed="max" id="1196" type="HV">
		<route edges="genE296 genE317"/>
	</vehicle>
	<vehicle depart="998.69" departLane="free" departSpeed="max" id="908" type="HV">
		<route edges="genE318 genE297"/>
	</vehicle>
	<vehicle depart="1011.49" departLane="free" departSpeed="max" id="992" type="HV">
		<route edges="genE318 genE307"/>
	</vehicle>
	<vehicle depart="1019.83" departLane="free" departSpeed="max" id="1386" type="HV">
		<route edges="genE316 genE317"/>
	</vehicle>
	<vehicle depart="1047.15" departLane="free" departSpeed="max" id="1227" type="CV">
		<route edges="genE316 genE297"/>
	</vehicle>
	<vehicle depart="1048.56" departLane="free" departSpeed="max" id="1331" type="HV">
		<route edges="genE316 genE297"/>
	</vehicle>
	<vehicle depart="1049.85" departLane="free" departSpeed="max" id="917" type="HV">
		<route edges="genE318 genE297"/>
	</vehicle>
	<vehicle depart="1065.71" departLane="free" departSpeed="max" id="910" type="CV">
		<route edges="genE318 genE297"/>
	</vehicle>
	<vehicle depart="1068.12" departLane="free" departSpeed="max" id="1341" type="CV">
		<route edges="genE316 genE317"/>
	</vehicle>
	<vehicle depart="1081.16" departLane="free" departSpeed="max" id="1250" type="HV">
		<route edges="genE316 genE297"/>
	</vehicle>
	<vehicle depart="1086.74" departLane="free" departSpeed="max" id="1372" type="CV">
		<route edges="genE316 genE317"/>
	</vehicle>
	<vehicle depart="1087.11" departLane="free" departSpeed="max" id="951" type="HV">
		<route edges="genE318 genE307"/>
	</vehicle>
	<vehicle depart="1091.91" departLane="free" departSpeed="max" id="1188" type="HV">
		<route edges="genE296 genE317"/>
	</vehicle>
	<vehicle depart="1100.16" departLane="free" departSpeed="max" id="1419" type="HV">
		<route edges="genE316 genE317"/>
	</vehicle>
	<vehicle depart="1103.67" departLane="free" departSpeed="max" id="926" type="HV">
		<route edges="genE318 genE297"/>
	</vehicle>
	<vehicle depart="1108.43" departLane="free" departSpeed="max" id="1186" type="HV">
		<route edges="genE296 genE317"/>
	</vehicle>
	<vehicle depart="1111.18" departLane="free" departSpeed="max" id="945" type="CV">
		<route edges="genE318 genE307"/>
	</vehicle>
	<vehicle depart="1122.19" departLane="free" departSpeed="max" id="1037" type="CV">
		<route edges="genE296 genE307"/>
	</vehicle>
	<vehicle depart="1130.35" departLane="free" departSpeed="max" id="1109" type="HV">
		<route edges="genE296 genE307"/>
	</vehicle>
	<vehicle depart="1140.26" departLane="free" departSpeed="max" id="1253" type="HV">
		<route edges="genE316 genE297"/>
	</vehicle>
	<vehicle depart="1141.78" departLane="free" departSpeed="max" id="1268" type="HV">
		<route edges="genE316 genE297"/>
	</vehicle>
	<vehicle depart="1148.34" departLane="free" departSpeed="max" id="978" type="CV">
		<route edges="genE318 genE307"/>
	</vehicle>
	<vehicle depart="1153.17" departLane="free" departSpeed="max" id="1391" type="HV">
		<route edges="genE316 genE317"/>
	</vehicle>
	<vehicle depart="1187.33" departLane="free" departSpeed="max" id="1061" type="CV">
		<route edges="genE296 genE307"/>
	</vehicle>
	<vehicle depart="1194.22" departLane="free" departSpeed="max" id="1115" type="HV">
		<route edges="genE296 genE307"/>
	</vehicle>
	<vehicle depart="1195.1" departLane="free" departSpeed="max" id="1071" type="HV">
		<route edges="genE296 genE307"/>
	</vehicle>
	<vehicle depart="1198.21" departLane="free" departSpeed="max" id="1026" type="HV">
		<route edges="genE296 genE307"/>
	</vehicle>
	<vehicle depart="1200.04" departLane="free" departSpeed="max" id="1039" type="HV">
		<route edges="genE296 genE307"/>
	</vehicle>
	<vehicle depart="1201.73" departLane="free" departSpeed="max" id="1126" type="HV">
		<route edges="genE296 genE317"/>
	</vehicle>
	<vehicle depart="1220.59" departLane="free" departSpeed="max" id="1138" type="HV">
		<route edges="genE296 genE317"/>
	</vehicle>
	<vehicle depart="1229.73" departLane="free" departSpeed="max" id="1290" type="CV">
		<route edges="genE316 genE297"/>
	</vehicle>
	<vehicle depart="1236.42" departLane="free" departSpeed="max" id="1171" type="CV">
		<route edges="genE296 genE317"/>
	</vehicle>
	<vehicle depart="1236.69" departLane="free" departSpeed="max" id="1287" type="HV">
		<route edges="genE316 genE297"/>
	</vehicle>
	<vehicle depart="1236.92" departLane="free" departSpeed="max" id="1179" type="HV">
		<route edges="genE296 genE317"/>
	</vehicle>
	<vehicle depart="1238.55" departLane="free" departSpeed="max" id="1222" type="HV">
		<route edges="genE296 genE317"/>
	</vehicle>
	<vehicle depart="1261.35" departLane="free" departSpeed="max" id="1189" type="CV">
		<route edges="genE296 genE317"/>
	</vehicle>
	<vehicle depart="1281.49" departLane="free" departSpeed="max" id="1342" type="HV">
		<route edges="genE316 genE317"/>
	</vehicle>
	<vehicle depart="1285.47" departLane="free" departSpeed="max" id="1203" type="HV">
		<route edges="genE296 genE317"/>
	</vehicle>
	<vehicle depart="1287.3" departLane="free" departSpeed="max" id="1351" type="HV">
		<route edges="genE316 genE317"/>
	</vehicle>
	<vehicle depart="1291.77" departLane="free" departSpeed="max" id="1214" type="CV">
		<route edges="genE296 genE317"/>
	</vehicle>
	<vehicle depart="1291.87" departLane="free" departSpeed="max" id="988" type="HV">
		<route edges="genE318 genE307"/>
	</vehicle>
	<vehicle depart="1299.7" departLane="free" departSpeed="max" id="1024" type="HV">
		<route edges="genE296 genE307"/>
	</vehicle>
	<vehicle depart="1328.53" departLane="free" departSpeed="max" id="1042" type="HV">
		<route edges="genE296 genE307"/>
	</vehicle>
	<vehicle depart="1328.59" departLane="free" departSpeed="max" id="1009" type="HV">
		<route edges="genE318 genE307"/>
	</vehicle>
	<vehicle depart="1333.31" departLane="free" departSpeed="max" id="1350" type="CV">
		<route edges="genE316 genE317"/>
	</vehicle>
	<vehicle depart="1335.43" departLane="free" departSpeed="max" id="972" type="CV">
		<route edges="genE318 genE307"/>
	</vehicle>
	<vehicle depart="1337.79" departLane="free" departSpeed="max" id="1326" type="HV">
		<route edges="genE316 genE297"/>
	</vehicle>
	<vehicle depart="1343.23" departLane="free" departSpeed="max" id="1085" type="HV">
		<route edges="genE296 genE307"/>
	</vehicle>
	<vehicle depart="1347.69" departLane="free" departSpeed="max" id="906" type="CV">
		<route edges="genE318 genE297"/>
	</vehicle>
	<vehicle depart="1357.64" departLane="free" departSpeed="max" id="1070" type="HV">
		<route edges="genE296 genE307"/>
	</vehicle>
	<vehicle depart="1357.76" departLane="free" departSpeed="max" id="1277" type="HV">
		<route edges="genE316 genE297"/>
	</vehicle>
	<vehicle depart="1360.49" departLane="free" departSpeed="max" id="1368" type="CV">
		<route edges="genE316 genE317"/>
	</vehicle>
	<vehicle depart="1382.12" departLane="free" departSpeed="max" id="1376" type="HV">
		<route edges="genE316 genE317"/>
	</vehicle>
	<vehicle depart="1385.82" departLane="free" departSpeed="max" id="1155" type="HV">
		<route edges="genE296 genE317"/>
	</vehicle>
	<vehicle depart="1393.74" departLane="free" departSpeed="max" id="941" type="HV">
		<route edges="genE318 genE297"/>
	</vehicle>
	<vehicle depart="1397.3" departLane="free" departSpeed="max" id="962" type="CV">
		<route edges="genE318 genE307"/>
	</vehicle>
	<vehicle depart="1399.52" departLane="free" departSpeed="max" id="1245" type="HV">
		<route edges="genE316 genE297"/>
	</vehicle>
	<vehicle depart="1416.34" departLane="free" departSpeed="max" id="1022" type="HV">
		<route edges="genE296 genE307"/>
	</vehicle>
	<vehicle depart="1422.19" departLane="free" departSpeed="max" id="1011" type="CV">
		<route edges="genE318 genE307"/>
	</vehicle>
	<vehicle depart="1425.74" departLane="free" departSpeed="max" id="1172" type="HV">
		<route edges="genE296 genE317"/>
	</vehicle>
	<vehicle depart="1432.93" departLane="free" departSpeed="max" id="1246" type="HV">
		<route edges="genE316 genE297"/>
	</vehicle>
	<vehicle depart="1449.69" departLane="free" departSpeed="max" id="1075" type="CV">
		<route edges="genE296 genE307"/>
	</vehicle>
	<vehicle depart="1456.39" departLane="free" departSpeed="max" id="1112" type="CV">
		<route edges="genE296 genE307"/>
	</vehicle>
	<vehicle depart="1474.92" departLane="free" departSpeed="max" id="1280" type="HV">
		<route edges="genE316 genE297"/>
	</vehicle>
	<vehicle depart="1478.75" departLane="free" departSpeed="max" id="1394" type="HV">
		<route edges="genE316 genE317"/>
	</vehicle>
	<vehicle depart="1482.36" departLane="free" departSpeed="max" id="953" type="HV">
		<route edges="genE318 genE307"/>
	</vehicle>
	<vehicle depart="1482.43" departLane="free" departSpeed="max" id="990" type="HV">
		<route edges="genE318 genE307"/>
	</vehicle>
	<vehicle depart="1496.83" departLane="free" departSpeed="max" id="1354" type="CV">
		<route edges="genE316 genE317"/>
	</vehicle>
	<vehicle depart="1500.53" departLane="free" departSpeed="max" id="1098" type="HV">
		<route edges="genE296 genE307"/>
	</vehicle>
	<vehicle depart="1502.97" departLane="free" departSpeed="max" id="1361" type="HV">
		<route edges="genE316 genE317"/>
	</vehicle>
	<vehicle depart="1505.69" departLane="free" departSpeed="max" id="1259" type="HV">
		<route edges="genE316 genE297"/>
	</vehicle>
	<vehicle depart="1517.88" departLane="free" departSpeed="max" id="985" type="HV">
		<route edges="genE318 genE307"/>
	</vehicle>
	<vehicle depart="1533.63" departLane="free" departSpeed="max" id="1337" type="HV">
		<route edges="genE316 genE317"/>
	</vehicle>
	<vehicle depart="1537.08" departLane="free" departSpeed="max" id="1084" type="HV">
		<route edges="genE296 genE307"/>
	</vehicle>
	<vehicle depart="1537.62" departLane="free" departSpeed="max" id="1307" type="CV">
		<route edges="genE316 genE297"/>
	</vehicle>
	<vehicle depart="1553.26" departLane="free" departSpeed="max" id="956" type="CV">
		<route edges="genE318 genE307"/>
	</vehicle>
	<vehicle depart="1556.47" departLane="free" departSpeed="max" id="1199" type="CV">
		<route edges="genE296 genE317"/>
	</vehicle>
	<vehicle depart="1561.89" departLane="free" departSpeed="max" id="1019" type="HV">
		<route edges="genE318 genE307"/>
	</vehicle>
	<vehicle depart="1565.94" departLane="free" departSpeed="max" id="1083" type="HV">
		<route edges="genE296 genE307"/>
	</vehicle>
	<vehicle depart="1582.76" departLane="free" departSpeed="max" id="1201" type="HV">
		<route edges="genE296 genE317"/>
	</vehicle>
	<vehicle depart="1596.89" departLane="free" departSpeed="max" id="1142" type="CV">
		<route edges="genE296 genE317"/>
	</vehicle>
	<vehicle depart="1598.79" departLane="free" departSpeed="max" id="1209" type="CV">
		<route edges="genE296 genE317"/>
	</vehicle>
	<vehicle depart="1621.89" departLane="free" departSpeed="max" id="1271" type="HV">
		<route edges="genE316 genE297"/>
	</vehicle>
	<vehicle depart="1622.63" departLane="free" departSpeed="max" id="1041" type="HV">
		<route edges="genE296 genE307"/>
	</vehicle>
	<vehicle depart="1623.83" departLane="free" departSpeed="max" id="1262" type="HV">
		<route edges="genE316 genE297"/>
	</vehicle>
	<vehicle depart="1627.15" departLane="free" departSpeed="max" id="1027" type="CV">
		<route edges="genE296 genE307"/>
	</vehicle>