<?xml version="1.0" encoding="UTF-8"?>

<routes xmlns:xsi="http://www.w3.org/2001/XMLSchema-instance" xsi:noNamespaceSchemaLocation="http://sumo.dlr.de/xsd/routes_file.xsd">
    <vType id="passenger" maxSpeed="13.89" vClass="passenger" laneChangeModel="LC2013" lcKeepRight="0"/>
    <route id="wss" edges="--101819#0 genE573 genE568 genE528 genE523"/>
    <route id="wls" edges="--101819#0 genE573 genE568 genE528 genE525"/>
    <route id="wrs" edges="--101819#0 genE573 genE568 genE528 genE521 genE1112"/>
    <route id="wsl" edges="genE1231 genE571 genE568 genE528 genE523"/>
    <route id="wll" edges="genE1231 genE571 genE568 genE528 genE525"/>
    <route id="wrl" edges="genE1231 genE571 genE568 genE528 genE521 genE1112"/>
    <route id="es" edges="genE533 genE524 genE527"/>
    <route id="el" edges="genE533 genE524 genE521 genE1112"/>
    <route id="er" edges="genE533 genE524 genE525"/>
    <route id="ns" edges="-107181 genE526 genE521 genE1112"/>
    <route id="nl" edges="-107181 genE526 genE523"/>
    <route id="nr" edges="-107181 genE526 genE527"/>
    <route id="sss" edges="genE1110 genE1111 genE522 genE525"/>
    <route id="sls" edges="genE1110 genE1111 genE522 genE527"/>
    <route id="srs" edges="genE1110 genE1111 genE522 genE523"/>
    <route id="ssr" edges="genE988 genE1111 genE522 genE525"/>
    <route id="slr" edges="genE988 genE1111 genE522 genE527"/>
    <route id="srr" edges="genE988 genE1111 genE522 genE523"/>
    <flow id="flow1" period="exp(0.18)" route="wss" departSpeed="max" departLane="best"/>
    <flow id="flow2" period="exp(0.07)" route="wls" departSpeed="max" departLane="best"/>
    <flow id="flow3" period="exp(0.02)" route="wrs" departSpeed="max" departLane="best"/>
    <flow id="flow13" period="exp(0.08)" route="wsl" departSpeed="max" departLane="best"/>
    <flow id="flow14" period="exp(0.04)" route="wll" departSpeed="max" departLane="best"/>
    <flow id="flow15" period="exp(0.01)" route="wrl" departSpeed="max" departLane="best"/>

    <flow id="flow4" period="exp(0.26)" route="es" departSpeed="max" departLane="best"/>
    <flow id="flow5" period="exp(0.1)" route="el" departSpeed="max" departLane="best"/>
    <flow id="flow6" period="exp(0.04)" route="er" departSpeed="max" departLane="best"/>
    <flow id="flow7" period="exp(0.12)" route="ns" departSpeed="max" departLane="best"/>
    <flow id="flow8" period="exp(0.07)" route="nl" departSpeed="max" departLane="best"/>
    <flow id="flow9" period="exp(0.02)" route="nr" departSpeed="max" departLane="best"/>

    <flow id="flow10" period="exp(0.1)" route="sss" departSpeed="max" departLane="best"/>
    <flow id="flow11" period="exp(0.04)" route="sls" departSpeed="max" departLane="best"/>
    <flow id="flow12" period="exp(0.01)" route="srs" departSpeed="max" departLane="best"/>
    <flow id="flow16" period="exp(0.03)" route="sss" departSpeed="max" departLane="best"/>
    <flow id="flow17" period="exp(0.02)" route="sls" departSpeed="max" departLane="best"/>
    <flow id="flow18" period="exp(0.01)" route="srs" departSpeed="max" departLane="best"/>
</routes>
